MODEL 3
REMARK VINA RESULT:    -7.214      6.396      8.700
REMARK INTER + INTRA:         -13.891
REMARK INTER:                 -12.795
REMARK INTRA:                  -1.097
REMARK UNBOUND:                -1.406
REMARK  13 active torsions:
REMARK  status: ('A' for Active; 'I' for Inactive)
REMARK    1  A    between atoms: O3_3  and  C28_28 
REMARK    2  A    between atoms: O3_3  and  C33_33 
REMARK    3  A    between atoms: O5_5  and  N9_9 
REMARK       I    between atoms: N6_6  and  C12_12 
REMARK    4  A    between atoms: N7_7  and  C22_22 
REMARK    5  A    between atoms: N7_7  and  C13_13 
REMARK       I    between atoms: N8_8  and  C16_16 
REMARK    6  A    between atoms: N8_8  and  C20_20 
REMARK    7  A    between atoms: N9_9  and  C32_32 
REMARK    8  A    between atoms: C11_11  and  C16_16 
REMARK    9  A    between atoms: C12_12  and  C13_13 
REMARK   10  A    between atoms: C13_13  and  C17_17 
REMARK   11  A    between atoms: C20_20  and  C21_21 
REMARK   12  A    between atoms: C22_22  and  C28_28 
REMARK   13  A    between atoms: C25_25  and  C32_32 
ROOT
HETATM    1  O1  UNK     0      -4.126   4.461   4.573  1.00  0.00    -0.277 OA
HETATM    2  N6  UNK     0      -3.894   5.973   6.260  1.00  0.00    -0.238 NA
HETATM    3  C11 UNK     0      -2.436   6.077   6.403  1.00  0.00     0.159 C 
HETATM    4  C12 UNK     0      -4.526   5.501   5.091  1.00  0.00     0.234 C 
HETATM    5  C14 UNK     0      -3.715   7.429   6.643  1.00  0.00     0.099 C 
HETATM    6  C15 UNK     0      -2.141   7.551   6.320  1.00  0.00     0.045 C 
ENDROOT
BRANCH   4   7
HETATM    7  C13 UNK     0      -5.702   6.262   4.432  1.00  0.00     0.310 C 
BRANCH   7   8
HETATM    8  N7  UNK     0      -7.000   5.677   4.896  1.00  0.00     0.106 N 
HETATM    9  H38 UNK     0      -7.713   5.736   4.100  1.00  0.00     0.317 HD
BRANCH   8  10
HETATM   10  C22 UNK     0      -7.539   6.409   6.086  1.00  0.00     0.381 C 
BRANCH  10  11
HETATM   11  C28 UNK     0      -8.934   5.879   6.443  1.00  0.00     0.287 C 
HETATM   12  O4  UNK     0      -9.223   4.705   6.219  1.00  0.00    -0.263 OA
BRANCH  11  13
HETATM   13  O3  UNK     0      -9.869   6.722   7.012  1.00  0.00    -0.321 OA
BRANCH  13  14
HETATM   14  C33 UNK     0     -10.311   6.498   8.368  1.00  0.00     0.174 C 
HETATM   15  C34 UNK     0     -11.774   5.977   8.365  1.00  0.00     0.034 C 
ENDBRANCH  13  14
ENDBRANCH  11  13
ENDBRANCH  10  11
ENDBRANCH   8  10
ENDBRANCH   7   8
BRANCH   7  16
HETATM   16  C17 UNK     0      -5.600   6.130   2.872  1.00  0.00     0.028 C 
HETATM   17  C18 UNK     0      -5.087   7.462   2.244  1.00  0.00     0.009 C 
HETATM   18  C23 UNK     0      -4.897   7.277   0.705  1.00  0.00     0.000 C 
HETATM   19  C29 UNK     0      -6.192   6.716   0.021  1.00  0.00     0.000 C 
HETATM   20  C24 UNK     0      -7.376   6.618   1.034  1.00  0.00     0.000 C 
HETATM   21  C19 UNK     0      -6.970   5.703   2.236  1.00  0.00     0.007 C 
ENDBRANCH   7  16
ENDBRANCH   4   7
BRANCH   3  22
HETATM   22  C16 UNK     0      -1.957   5.496   7.748  1.00  0.00     0.236 C 
HETATM   23  O2  UNK     0      -2.676   4.718   8.370  1.00  0.00    -0.272 OA
HETATM   24  N8  UNK     0      -0.706   5.861   8.273  1.00  0.00    -0.355 N 
HETATM   25  H39 UNK     0      -0.065   6.536   7.746  1.00  0.00     0.162 HD
BRANCH  24  26
HETATM   26  C20 UNK     0      -0.299   5.280   9.587  1.00  0.00     0.161 C 
BRANCH  26  27
HETATM   27  C21 UNK     0       0.834   6.062  10.277  1.00  0.00    -0.040 A 
HETATM   28  C26 UNK     0       1.991   5.371  10.681  1.00  0.00     0.010 A 
HETATM   29  C30 UNK     0       3.037   6.056  11.325  1.00  0.00     0.016 A 
HETATM   30  C25 UNK     0       2.928   7.436  11.571  1.00  0.00     0.011 A 
HETATM   31  C31 UNK     0       1.772   8.133  11.165  1.00  0.00     0.016 A 
HETATM   32  C27 UNK     0       0.724   7.446  10.517  1.00  0.00     0.010 A 
BRANCH  30  33
HETATM   33  C32 UNK     0       4.045   8.148  12.263  1.00  0.00     0.158 C 
HETATM   34  N10 UNK     0       3.985   8.375  13.561  1.00  0.00    -0.382 N 
HETATM   35  H41 UNK     0       4.784   8.890  14.052  1.00  0.00     0.157 HD
HETATM   36  H36 UNK     0       3.137   8.043  14.124  1.00  0.00     0.157 HD
BRANCH  33  37
HETATM   37  N9  UNK     0       5.157   8.582  11.525  1.00  0.00    -0.118 NA
BRANCH  37  38
HETATM   38  O5  UNK     0       6.440   7.842  11.593  1.00  0.00    -0.264 OA
HETATM   39  H37 UNK     0       6.283   6.911  12.052  1.00  0.00     0.247 HD
ENDBRANCH  37  38
ENDBRANCH  33  37
ENDBRANCH  30  33
ENDBRANCH  26  27
ENDBRANCH  24  26
ENDBRANCH   3  22
TORSDOF 13
ENDMDL
