MODEL 1
REMARK VINA RESULT:    -7.404      0.000      0.000
REMARK INTER + INTRA:         -14.221
REMARK INTER:                 -12.815
REMARK INTRA:                  -1.406
REMARK UNBOUND:                -1.406
REMARK  13 active torsions:
REMARK  status: ('A' for Active; 'I' for Inactive)
REMARK    1  A    between atoms: O3_3  and  C28_28 
REMARK    2  A    between atoms: O3_3  and  C33_33 
REMARK    3  A    between atoms: O5_5  and  N9_9 
REMARK       I    between atoms: N6_6  and  C12_12 
REMARK    4  A    between atoms: N7_7  and  C22_22 
REMARK    5  A    between atoms: N7_7  and  C13_13 
REMARK       I    between atoms: N8_8  and  C16_16 
REMARK    6  A    between atoms: N8_8  and  C20_20 
REMARK    7  A    between atoms: N9_9  and  C32_32 
REMARK    8  A    between atoms: C11_11  and  C16_16 
REMARK    9  A    between atoms: C12_12  and  C13_13 
REMARK   10  A    between atoms: C13_13  and  C17_17 
REMARK   11  A    between atoms: C20_20  and  C21_21 
REMARK   12  A    between atoms: C22_22  and  C28_28 
REMARK   13  A    between atoms: C25_25  and  C32_32 
ROOT
HETATM    1  O1  UNK     0      -2.546   7.302  -1.783  1.00  0.00    -0.277 OA
HETATM    2  N6  UNK     0      -3.552   6.237  -0.039  1.00  0.00    -0.238 NA
HETATM    3  C11 UNK     0      -4.087   7.350   0.754  1.00  0.00     0.159 C 
HETATM    4  C12 UNK     0      -3.222   6.347  -1.405  1.00  0.00     0.234 C 
HETATM    5  C14 UNK     0      -4.832   5.644   0.518  1.00  0.00     0.099 C 
HETATM    6  C15 UNK     0      -5.543   7.022   0.951  1.00  0.00     0.045 C 
ENDROOT
BRANCH   4   7
HETATM    7  C13 UNK     0      -3.699   5.309  -2.450  1.00  0.00     0.310 C 
BRANCH   7   8
HETATM    8  N7  UNK     0      -2.537   4.477  -2.897  1.00  0.00     0.106 N 
HETATM    9  H38 UNK     0      -2.386   4.625  -3.946  1.00  0.00     0.317 HD
BRANCH   8  10
HETATM   10  C22 UNK     0      -2.771   3.021  -2.641  1.00  0.00     0.381 C 
BRANCH  10  11
HETATM   11  C28 UNK     0      -1.610   2.437  -1.825  1.00  0.00     0.287 C 
HETATM   12  O4  UNK     0      -1.346   1.239  -1.899  1.00  0.00    -0.263 OA
BRANCH  11  13
HETATM   13  O3  UNK     0      -0.862   3.258  -1.002  1.00  0.00    -0.321 OA
BRANCH  13  14
HETATM   14  C33 UNK     0       0.553   3.419  -1.238  1.00  0.00     0.174 C 
HETATM   15  C34 UNK     0       1.340   3.119   0.068  1.00  0.00     0.034 C 
ENDBRANCH  13  14
ENDBRANCH  11  13
ENDBRANCH  10  11
ENDBRANCH   8  10
ENDBRANCH   7   8
BRANCH   7  16
HETATM   16  C17 UNK     0      -4.311   6.055  -3.686  1.00  0.00     0.028 C 
HETATM   17  C18 UNK     0      -5.686   6.691  -3.315  1.00  0.00     0.009 C 
HETATM   18  C23 UNK     0      -6.229   7.513  -4.527  1.00  0.00     0.000 C 
HETATM   19  C29 UNK     0      -6.265   6.658  -5.841  1.00  0.00     0.000 C 
HETATM   20  C24 UNK     0      -5.879   5.170  -5.565  1.00  0.00     0.000 C 
HETATM   21  C19 UNK     0      -4.453   5.103  -4.926  1.00  0.00     0.007 C 
ENDBRANCH   7  16
ENDBRANCH   4   7
BRANCH   3  22
HETATM   22  C16 UNK     0      -3.364   7.476   2.110  1.00  0.00     0.236 C 
HETATM   23  O2  UNK     0      -3.998   7.780   3.117  1.00  0.00    -0.272 OA
HETATM   24  N8  UNK     0      -1.979   7.259   2.198  1.00  0.00    -0.355 N 
HETATM   25  H39 UNK     0      -1.408   6.992   1.333  1.00  0.00     0.162 HD
BRANCH  24  26
HETATM   26  C20 UNK     0      -1.326   7.409   3.533  1.00  0.00     0.161 C 
BRANCH  26  27
HETATM   27  C21 UNK     0      -0.635   8.772   3.725  1.00  0.00    -0.040 A 
HETATM   28  C26 UNK     0       0.646   8.968   3.178  1.00  0.00     0.010 A 
HETATM   29  C30 UNK     0       1.308  10.197   3.349  1.00  0.00     0.016 A 
HETATM   30  C25 UNK     0       0.692  11.234   4.072  1.00  0.00     0.011 A 
HETATM   31  C31 UNK     0      -0.592  11.042   4.620  1.00  0.00     0.016 A 
HETATM   32  C27 UNK     0      -1.257   9.811   4.447  1.00  0.00     0.010 A 
BRANCH  30  33
HETATM   33  C32 UNK     0       1.412  12.532   4.251  1.00  0.00     0.158 C 
HETATM   34  N10 UNK     0       0.849  13.517   4.924  1.00  0.00    -0.382 N 
HETATM   35  H41 UNK     0       1.366  14.446   5.045  1.00  0.00     0.157 HD
HETATM   36  H36 UNK     0      -0.124  13.387   5.350  1.00  0.00     0.157 HD
BRANCH  33  37
HETATM   37  N9  UNK     0       2.688  12.702   3.693  1.00  0.00    -0.118 NA
BRANCH  37  38
HETATM   38  O5  UNK     0       3.593  13.763   4.197  1.00  0.00    -0.264 OA
HETATM   39  H37 UNK     0       4.220  13.366   4.939  1.00  0.00     0.247 HD
ENDBRANCH  37  38
ENDBRANCH  33  37
ENDBRANCH  30  33
ENDBRANCH  26  27
ENDBRANCH  24  26
ENDBRANCH   3  22
TORSDOF 13
ENDMDL
MODEL 2
REMARK VINA RESULT:    -7.246      4.568      5.175
REMARK INTER + INTRA:         -13.947
REMARK INTER:                 -12.848
REMARK INTRA:                  -1.099
REMARK UNBOUND:                -1.406
REMARK  13 active torsions:
REMARK  status: ('A' for Active; 'I' for Inactive)
REMARK    1  A    between atoms: O3_3  and  C28_28 
REMARK    2  A    between atoms: O3_3  and  C33_33 
REMARK    3  A    between atoms: O5_5  and  N9_9 
REMARK       I    between atoms: N6_6  and  C12_12 
REMARK    4  A    between atoms: N7_7  and  C22_22 
REMARK    5  A    between atoms: N7_7  and  C13_13 
REMARK       I    between atoms: N8_8  and  C16_16 
REMARK    6  A    between atoms: N8_8  and  C20_20 
REMARK    7  A    between atoms: N9_9  and  C32_32 
REMARK    8  A    between atoms: C11_11  and  C16_16 
REMARK    9  A    between atoms: C12_12  and  C13_13 
REMARK   10  A    between atoms: C13_13  and  C17_17 
REMARK   11  A    between atoms: C20_20  and  C21_21 
REMARK   12  A    between atoms: C22_22  and  C28_28 
REMARK   13  A    between atoms: C25_25  and  C32_32 
ROOT
HETATM    1  O1  UNK     0      -2.969   4.321   0.539  1.00  0.00    -0.277 OA
HETATM    2  N6  UNK     0      -5.179   4.774   0.849  1.00  0.00    -0.238 NA
HETATM    3  C11 UNK     0      -5.150   6.069   1.539  1.00  0.00     0.159 C 
HETATM    4  C12 UNK     0      -4.107   4.283   0.076  1.00  0.00     0.234 C 
HETATM    5  C14 UNK     0      -6.424   5.450   0.309  1.00  0.00     0.099 C 
HETATM    6  C15 UNK     0      -6.057   6.959   0.732  1.00  0.00     0.045 C 
ENDROOT
BRANCH   4   7
HETATM    7  C13 UNK     0      -4.318   3.710  -1.347  1.00  0.00     0.310 C 
BRANCH   7   8
HETATM    8  N7  UNK     0      -3.476   2.483  -1.523  1.00  0.00     0.106 N 
HETATM    9  H38 UNK     0      -3.088   2.188  -0.570  1.00  0.00     0.317 HD
BRANCH   8  10
HETATM   10  C22 UNK     0      -2.333   2.729  -2.458  1.00  0.00     0.381 C 
BRANCH  10  11
HETATM   11  C28 UNK     0      -1.084   1.983  -1.969  1.00  0.00     0.287 C 
HETATM   12  O4  UNK     0      -0.851   0.845  -2.370  1.00  0.00    -0.263 OA
BRANCH  11  13
HETATM   13  O3  UNK     0      -0.222   2.589  -1.075  1.00  0.00    -0.321 OA
BRANCH  13  14
HETATM   14  C33 UNK     0       0.071   3.997  -1.197  1.00  0.00     0.174 C 
HETATM   15  C34 UNK     0       0.588   4.545   0.161  1.00  0.00     0.034 C 
ENDBRANCH  13  14
ENDBRANCH  11  13
ENDBRANCH  10  11
ENDBRANCH   8  10
ENDBRANCH   7   8
BRANCH   7  16
HETATM   16  C17 UNK     0      -3.899   4.785  -2.410  1.00  0.00     0.028 C 
HETATM   17  C18 UNK     0      -3.320   6.051  -1.707  1.00  0.00     0.009 C 
HETATM   18  C23 UNK     0      -2.817   7.065  -2.784  1.00  0.00     0.000 C 
HETATM   19  C29 UNK     0      -3.926   7.385  -3.846  1.00  0.00     0.000 C 
HETATM   20  C24 UNK     0      -5.285   6.714  -3.472  1.00  0.00     0.000 C 
HETATM   21  C19 UNK     0      -5.096   5.166  -3.351  1.00  0.00     0.007 C 
ENDBRANCH   7  16
ENDBRANCH   4   7
BRANCH   3  22
HETATM   22  C16 UNK     0      -5.650   5.947   2.992  1.00  0.00     0.236 C 
HETATM   23  O2  UNK     0      -6.609   6.614   3.368  1.00  0.00    -0.272 OA
HETATM   24  N8  UNK     0      -5.004   5.085   3.894  1.00  0.00    -0.355 N 
HETATM   25  H39 UNK     0      -4.166   4.494   3.586  1.00  0.00     0.162 HD
BRANCH  24  26
HETATM   26  C20 UNK     0      -5.520   5.017   5.294  1.00  0.00     0.161 C 
BRANCH  26  27
HETATM   27  C21 UNK     0      -4.408   4.877   6.350  1.00  0.00    -0.040 A 
HETATM   28  C26 UNK     0      -3.439   5.892   6.457  1.00  0.00     0.010 A 
HETATM   29  C30 UNK     0      -2.404   5.785   7.403  1.00  0.00     0.016 A 
HETATM   30  C25 UNK     0      -2.331   4.660   8.243  1.00  0.00     0.011 A 
HETATM   31  C31 UNK     0      -3.301   3.643   8.141  1.00  0.00     0.016 A 
HETATM   32  C27 UNK     0      -4.340   3.751   7.194  1.00  0.00     0.010 A 
BRANCH  30  33
HETATM   33  C32 UNK     0      -1.220   4.559   9.238  1.00  0.00     0.158 C 
HETATM   34  N10 UNK     0      -1.438   4.841  10.509  1.00  0.00    -0.382 N 
HETATM   35  H41 UNK     0      -0.638   4.773  11.217  1.00  0.00     0.157 HD
HETATM   36  H36 UNK     0      -2.414   5.138  10.831  1.00  0.00     0.157 HD
BRANCH  33  37
HETATM   37  N9  UNK     0       0.060   4.169   8.815  1.00  0.00    -0.118 NA
BRANCH  37  38
HETATM   38  O5  UNK     0       1.257   4.532   9.610  1.00  0.00    -0.264 OA
HETATM   39  H37 UNK     0       2.119   4.178   9.128  1.00  0.00     0.247 HD
ENDBRANCH  37  38
ENDBRANCH  33  37
ENDBRANCH  30  33
ENDBRANCH  26  27
ENDBRANCH  24  26
ENDBRANCH   3  22
TORSDOF 13
ENDMDL
MODEL 3
REMARK VINA RESULT:    -7.214      6.396      8.700
REMARK INTER + INTRA:         -13.891
REMARK INTER:                 -12.795
REMARK INTRA:                  -1.097
REMARK UNBOUND:                -1.406
REMARK  13 active torsions:
REMARK  status: ('A' for Active; 'I' for Inactive)
REMARK    1  A    between atoms: O3_3  and  C28_28 
REMARK    2  A    between atoms: O3_3  and  C33_33 
REMARK    3  A    between atoms: O5_5  and  N9_9 
REMARK       I    between atoms: N6_6  and  C12_12 
REMARK    4  A    between atoms: N7_7  and  C22_22 
REMARK    5  A    between atoms: N7_7  and  C13_13 
REMARK       I    between atoms: N8_8  and  C16_16 
REMARK    6  A    between atoms: N8_8  and  C20_20 
REMARK    7  A    between atoms: N9_9  and  C32_32 
REMARK    8  A    between atoms: C11_11  and  C16_16 
REMARK    9  A    between atoms: C12_12  and  C13_13 
REMARK   10  A    between atoms: C13_13  and  C17_17 
REMARK   11  A    between atoms: C20_20  and  C21_21 
REMARK   12  A    between atoms: C22_22  and  C28_28 
REMARK   13  A    between atoms: C25_25  and  C32_32 
ROOT
HETATM    1  O1  UNK     0      -4.126   4.461   4.573  1.00  0.00    -0.277 OA
HETATM    2  N6  UNK     0      -3.894   5.973   6.260  1.00  0.00    -0.238 NA
HETATM    3  C11 UNK     0      -2.436   6.077   6.403  1.00  0.00     0.159 C 
HETATM    4  C12 UNK     0      -4.526   5.501   5.091  1.00  0.00     0.234 C 
HETATM    5  C14 UNK     0      -3.715   7.429   6.643  1.00  0.00     0.099 C 
HETATM    6  C15 UNK     0      -2.141   7.551   6.320  1.00  0.00     0.045 C 
ENDROOT
BRANCH   4   7
HETATM    7  C13 UNK     0      -5.702   6.262   4.432  1.00  0.00     0.310 C 
BRANCH   7   8
HETATM    8  N7  UNK     0      -7.000   5.677   4.896  1.00  0.00     0.106 N 
HETATM    9  H38 UNK     0      -7.713   5.736   4.100  1.00  0.00     0.317 HD
BRANCH   8  10
HETATM   10  C22 UNK     0      -7.539   6.409   6.086  1.00  0.00     0.381 C 
BRANCH  10  11
HETATM   11  C28 UNK     0      -8.934   5.879   6.443  1.00  0.00     0.287 C 
HETATM   12  O4  UNK     0      -9.223   4.705   6.219  1.00  0.00    -0.263 OA
BRANCH  11  13
HETATM   13  O3  UNK     0      -9.869   6.722   7.012  1.00  0.00    -0.321 OA
BRANCH  13  14
HETATM   14  C33 UNK     0     -10.311   6.498   8.368  1.00  0.00     0.174 C 
HETATM   15  C34 UNK     0     -11.774   5.977   8.365  1.00  0.00     0.034 C 
ENDBRANCH  13  14
ENDBRANCH  11  13
ENDBRANCH  10  11
ENDBRANCH   8  10
ENDBRANCH   7   8
BRANCH   7  16
HETATM   16  C17 UNK     0      -5.600   6.130   2.872  1.00  0.00     0.028 C 
HETATM   17  C18 UNK     0      -5.087   7.462   2.244  1.00  0.00     0.009 C 
HETATM   18  C23 UNK     0      -4.897   7.277   0.705  1.00  0.00     0.000 C 
HETATM   19  C29 UNK     0      -6.192   6.716   0.021  1.00  0.00     0.000 C 
HETATM   20  C24 UNK     0      -7.376   6.618   1.034  1.00  0.00     0.000 C 
HETATM   21  C19 UNK     0      -6.970   5.703   2.236  1.00  0.00     0.007 C 
ENDBRANCH   7  16
ENDBRANCH   4   7
BRANCH   3  22
HETATM   22  C16 UNK     0      -1.957   5.496   7.748  1.00  0.00     0.236 C 
HETATM   23  O2  UNK     0      -2.676   4.718   8.370  1.00  0.00    -0.272 OA
HETATM   24  N8  UNK     0      -0.706   5.861   8.273  1.00  0.00    -0.355 N 
HETATM   25  H39 UNK     0      -0.065   6.536   7.746  1.00  0.00     0.162 HD
BRANCH  24  26
HETATM   26  C20 UNK     0      -0.299   5.280   9.587  1.00  0.00     0.161 C 
BRANCH  26  27
HETATM   27  C21 UNK     0       0.834   6.062  10.277  1.00  0.00    -0.040 A 
HETATM   28  C26 UNK     0       1.991   5.371  10.681  1.00  0.00     0.010 A 
HETATM   29  C30 UNK     0       3.037   6.056  11.325  1.00  0.00     0.016 A 
HETATM   30  C25 UNK     0       2.928   7.436  11.571  1.00  0.00     0.011 A 
HETATM   31  C31 UNK     0       1.772   8.133  11.165  1.00  0.00     0.016 A 
HETATM   32  C27 UNK     0       0.724   7.446  10.517  1.00  0.00     0.010 A 
BRANCH  30  33
HETATM   33  C32 UNK     0       4.045   8.148  12.263  1.00  0.00     0.158 C 
HETATM   34  N10 UNK     0       3.985   8.375  13.561  1.00  0.00    -0.382 N 
HETATM   35  H41 UNK     0       4.784   8.890  14.052  1.00  0.00     0.157 HD
HETATM   36  H36 UNK     0       3.137   8.043  14.124  1.00  0.00     0.157 HD
BRANCH  33  37
HETATM   37  N9  UNK     0       5.157   8.582  11.525  1.00  0.00    -0.118 NA
BRANCH  37  38
HETATM   38  O5  UNK     0       6.440   7.842  11.593  1.00  0.00    -0.264 OA
HETATM   39  H37 UNK     0       6.283   6.911  12.052  1.00  0.00     0.247 HD
ENDBRANCH  37  38
ENDBRANCH  33  37
ENDBRANCH  30  33
ENDBRANCH  26  27
ENDBRANCH  24  26
ENDBRANCH   3  22
TORSDOF 13
ENDMDL
MODEL 4
REMARK VINA RESULT:    -7.164      4.985      9.662
REMARK INTER + INTRA:         -13.805
REMARK INTER:                 -12.346
REMARK INTRA:                  -1.459
REMARK UNBOUND:                -1.406
REMARK  13 active torsions:
REMARK  status: ('A' for Active; 'I' for Inactive)
REMARK    1  A    between atoms: O3_3  and  C28_28 
REMARK    2  A    between atoms: O3_3  and  C33_33 
REMARK    3  A    between atoms: O5_5  and  N9_9 
REMARK       I    between atoms: N6_6  and  C12_12 
REMARK    4  A    between atoms: N7_7  and  C22_22 
REMARK    5  A    between atoms: N7_7  and  C13_13 
REMARK       I    between atoms: N8_8  and  C16_16 
REMARK    6  A    between atoms: N8_8  and  C20_20 
REMARK    7  A    between atoms: N9_9  and  C32_32 
REMARK    8  A    between atoms: C11_11  and  C16_16 
REMARK    9  A    between atoms: C12_12  and  C13_13 
REMARK   10  A    between atoms: C13_13  and  C17_17 
REMARK   11  A    between atoms: C20_20  and  C21_21 
REMARK   12  A    between atoms: C22_22  and  C28_28 
REMARK   13  A    between atoms: C25_25  and  C32_32 
ROOT
HETATM    1  O1  UNK     0      -4.316   5.759   4.112  1.00  0.00    -0.277 OA
HETATM    2  N6  UNK     0      -2.346   6.290   5.123  1.00  0.00    -0.238 NA
HETATM    3  C11 UNK     0      -1.890   7.453   4.353  1.00  0.00     0.159 C 
HETATM    4  C12 UNK     0      -3.690   5.866   5.164  1.00  0.00     0.234 C 
HETATM    5  C14 UNK     0      -1.646   7.119   6.183  1.00  0.00     0.099 C 
HETATM    6  C15 UNK     0      -1.609   8.515   5.382  1.00  0.00     0.045 C 
ENDROOT
BRANCH   4   7
HETATM    7  C13 UNK     0      -4.407   5.544   6.498  1.00  0.00     0.310 C 
BRANCH   7   8
HETATM    8  N7  UNK     0      -4.343   4.070   6.758  1.00  0.00     0.106 N 
HETATM    9  H38 UNK     0      -5.334   3.701   6.919  1.00  0.00     0.317 HD
BRANCH   8  10
HETATM   10  C22 UNK     0      -3.509   3.761   7.963  1.00  0.00     0.381 C 
BRANCH  10  11
HETATM   11  C28 UNK     0      -4.300   2.880   8.938  1.00  0.00     0.287 C 
HETATM   12  O4  UNK     0      -3.840   2.623  10.049  1.00  0.00    -0.263 OA
BRANCH  11  13
HETATM   13  O3  UNK     0      -5.530   2.371   8.568  1.00  0.00    -0.321 OA
BRANCH  13  14
HETATM   14  C33 UNK     0      -6.329   1.646   9.527  1.00  0.00     0.174 C 
HETATM   15  C34 UNK     0      -7.789   1.523   9.007  1.00  0.00     0.034 C 
ENDBRANCH  13  14
ENDBRANCH  11  13
ENDBRANCH  10  11
ENDBRANCH   8  10
ENDBRANCH   7   8
BRANCH   7  16
HETATM   16  C17 UNK     0      -5.908   5.990   6.405  1.00  0.00     0.028 C 
HETATM   17  C18 UNK     0      -6.291   6.876   7.630  1.00  0.00     0.009 C 
HETATM   18  C23 UNK     0      -7.756   7.392   7.467  1.00  0.00     0.000 C 
HETATM   19  C29 UNK     0      -8.761   6.218   7.199  1.00  0.00     0.000 C 
HETATM   20  C24 UNK     0      -8.056   4.829   7.302  1.00  0.00     0.000 C 
HETATM   21  C19 UNK     0      -6.873   4.758   6.282  1.00  0.00     0.007 C 
ENDBRANCH   7  16
ENDBRANCH   4   7
BRANCH   3  22
HETATM   22  C16 UNK     0      -0.622   7.130   3.538  1.00  0.00     0.236 C 
HETATM   23  O2  UNK     0       0.078   8.041   3.105  1.00  0.00    -0.272 OA
HETATM   24  N8  UNK     0      -0.270   5.795   3.276  1.00  0.00    -0.355 N 
HETATM   25  H39 UNK     0      -0.865   4.986   3.645  1.00  0.00     0.162 HD
BRANCH  24  26
HETATM   26  C20 UNK     0       0.961   5.539   2.468  1.00  0.00     0.161 C 
BRANCH  26  27
HETATM   27  C21 UNK     0       0.685   4.776   1.159  1.00  0.00    -0.040 A 
HETATM   28  C26 UNK     0       1.372   3.572   0.915  1.00  0.00     0.010 A 
HETATM   29  C30 UNK     0       1.150   2.860  -0.277  1.00  0.00     0.016 A 
HETATM   30  C25 UNK     0       0.243   3.351  -1.232  1.00  0.00     0.011 A 
HETATM   31  C31 UNK     0      -0.449   4.554  -0.991  1.00  0.00     0.016 A 
HETATM   32  C27 UNK     0      -0.229   5.268   0.206  1.00  0.00     0.010 A 
BRANCH  30  33
HETATM   33  C32 UNK     0       0.024   2.585  -2.497  1.00  0.00     0.158 C 
HETATM   34  N10 UNK     0       1.044   2.296  -3.284  1.00  0.00    -0.382 N 
HETATM   35  H41 UNK     0       0.882   1.753  -4.191  1.00  0.00     0.157 HD
HETATM   36  H36 UNK     0       2.032   2.605  -3.014  1.00  0.00     0.157 HD
BRANCH  33  37
HETATM   37  N9  UNK     0      -1.272   2.181  -2.851  1.00  0.00    -0.118 NA
BRANCH  37  38
HETATM   38  O5  UNK     0      -2.133   1.476  -1.871  1.00  0.00    -0.264 OA
HETATM   39  H37 UNK     0      -1.533   1.026  -1.137  1.00  0.00     0.247 HD
ENDBRANCH  37  38
ENDBRANCH  33  37
ENDBRANCH  30  33
ENDBRANCH  26  27
ENDBRANCH  24  26
ENDBRANCH   3  22
TORSDOF 13
ENDMDL
MODEL 5
REMARK VINA RESULT:    -7.163      4.237     10.583
REMARK INTER + INTRA:         -13.804
REMARK INTER:                 -12.302
REMARK INTRA:                  -1.502
REMARK UNBOUND:                -1.406
REMARK  13 active torsions:
REMARK  status: ('A' for Active; 'I' for Inactive)
REMARK    1  A    between atoms: O3_3  and  C28_28 
REMARK    2  A    between atoms: O3_3  and  C33_33 
REMARK    3  A    between atoms: O5_5  and  N9_9 
REMARK       I    between atoms: N6_6  and  C12_12 
REMARK    4  A    between atoms: N7_7  and  C22_22 
REMARK    5  A    between atoms: N7_7  and  C13_13 
REMARK       I    between atoms: N8_8  and  C16_16 
REMARK    6  A    between atoms: N8_8  and  C20_20 
REMARK    7  A    between atoms: N9_9  and  C32_32 
REMARK    8  A    between atoms: C11_11  and  C16_16 
REMARK    9  A    between atoms: C12_12  and  C13_13 
REMARK   10  A    between atoms: C13_13  and  C17_17 
REMARK   11  A    between atoms: C20_20  and  C21_21 
REMARK   12  A    between atoms: C22_22  and  C28_28 
REMARK   13  A    between atoms: C25_25  and  C32_32 
ROOT
HETATM    1  O1  UNK     0      -3.882   4.289   1.889  1.00  0.00    -0.277 OA
HETATM    2  N6  UNK     0      -5.061   6.083   1.131  1.00  0.00    -0.238 NA
HETATM    3  C11 UNK     0      -6.177   5.457   0.410  1.00  0.00     0.159 C 
HETATM    4  C12 UNK     0      -4.307   5.419   2.119  1.00  0.00     0.234 C 
HETATM    5  C14 UNK     0      -6.194   7.058   1.388  1.00  0.00     0.099 C 
HETATM    6  C15 UNK     0      -7.416   6.088   0.987  1.00  0.00     0.045 C 
ENDROOT
BRANCH   4   7
HETATM    7  C13 UNK     0      -4.007   6.065   3.494  1.00  0.00     0.310 C 
BRANCH   7   8
HETATM    8  N7  UNK     0      -2.686   5.574   4.001  1.00  0.00     0.106 N 
HETATM    9  H38 UNK     0      -2.848   4.979   4.875  1.00  0.00     0.317 HD
BRANCH   8  10
HETATM   10  C22 UNK     0      -1.774   6.709   4.349  1.00  0.00     0.381 C 
BRANCH  10  11
HETATM   11  C28 UNK     0      -1.622   6.814   5.872  1.00  0.00     0.287 C 
HETATM   12  O4  UNK     0      -2.216   7.693   6.492  1.00  0.00    -0.263 OA
BRANCH  11  13
HETATM   13  O3  UNK     0      -0.812   5.921   6.549  1.00  0.00    -0.321 OA
BRANCH  13  14
HETATM   14  C33 UNK     0      -1.230   5.391   7.824  1.00  0.00     0.174 C 
HETATM   15  C34 UNK     0       0.002   4.833   8.590  1.00  0.00     0.034 C 
ENDBRANCH  13  14
ENDBRANCH  11  13
ENDBRANCH  10  11
ENDBRANCH   8  10
ENDBRANCH   7   8
BRANCH   7  16
HETATM   16  C17 UNK     0      -5.133   5.672   4.512  1.00  0.00     0.028 C 
HETATM   17  C18 UNK     0      -5.734   6.947   5.180  1.00  0.00     0.009 C 
HETATM   18  C23 UNK     0      -6.920   6.542   6.112  1.00  0.00     0.000 C 
HETATM   19  C29 UNK     0      -6.502   5.431   7.137  1.00  0.00     0.000 C 
HETATM   20  C24 UNK     0      -4.975   5.118   7.049  1.00  0.00     0.000 C 
HETATM   21  C19 UNK     0      -4.609   4.667   5.597  1.00  0.00     0.007 C 
ENDBRANCH   7  16
ENDBRANCH   4   7
BRANCH   3  22
HETATM   22  C16 UNK     0      -6.084   5.713  -1.107  1.00  0.00     0.236 C 
HETATM   23  O2  UNK     0      -7.068   6.114  -1.722  1.00  0.00    -0.272 OA
HETATM   24  N8  UNK     0      -4.881   5.478  -1.794  1.00  0.00    -0.355 N 
HETATM   25  H39 UNK     0      -4.012   5.130  -1.277  1.00  0.00     0.162 HD
BRANCH  24  26
HETATM   26  C20 UNK     0      -4.852   5.728  -3.266  1.00  0.00     0.161 C 
BRANCH  26  27
HETATM   27  C21 UNK     0      -5.000   4.447  -4.107  1.00  0.00    -0.040 A 
HETATM   28  C26 UNK     0      -6.290   4.006  -4.455  1.00  0.00     0.010 A 
HETATM   29  C30 UNK     0      -6.457   2.833  -5.211  1.00  0.00     0.016 A 
HETATM   30  C25 UNK     0      -5.334   2.093  -5.621  1.00  0.00     0.011 A 
HETATM   31  C31 UNK     0      -4.040   2.532  -5.277  1.00  0.00     0.016 A 
HETATM   32  C27 UNK     0      -3.872   3.710  -4.520  1.00  0.00     0.010 A 
BRANCH  30  33
HETATM   33  C32 UNK     0      -5.529   0.844  -6.418  1.00  0.00     0.158 C 
HETATM   34  N10 UNK     0      -6.656   0.644  -7.075  1.00  0.00    -0.382 N 
HETATM   35  H41 UNK     0      -6.794  -0.254  -7.640  1.00  0.00     0.157 HD
HETATM   36  H36 UNK     0      -7.431   1.381  -7.044  1.00  0.00     0.157 HD
BRANCH  33  37
HETATM   37  N9  UNK     0      -4.511  -0.122  -6.459  1.00  0.00    -0.118 NA
BRANCH  37  38
HETATM   38  O5  UNK     0      -4.829  -1.557  -6.259  1.00  0.00    -0.264 OA
HETATM   39  H37 UNK     0      -5.870  -1.683  -6.219  1.00  0.00     0.247 HD
ENDBRANCH  37  38
ENDBRANCH  33  37
ENDBRANCH  30  33
ENDBRANCH  26  27
ENDBRANCH  24  26
ENDBRANCH   3  22
TORSDOF 13
ENDMDL
MODEL 6
REMARK VINA RESULT:    -7.088      4.654      6.123
REMARK INTER + INTRA:         -13.673
REMARK INTER:                 -12.414
REMARK INTRA:                  -1.260
REMARK UNBOUND:                -1.406
REMARK  13 active torsions:
REMARK  status: ('A' for Active; 'I' for Inactive)
REMARK    1  A    between atoms: O3_3  and  C28_28 
REMARK    2  A    between atoms: O3_3  and  C33_33 
REMARK    3  A    between atoms: O5_5  and  N9_9 
REMARK       I    between atoms: N6_6  and  C12_12 
REMARK    4  A    between atoms: N7_7  and  C22_22 
REMARK    5  A    between atoms: N7_7  and  C13_13 
REMARK       I    between atoms: N8_8  and  C16_16 
REMARK    6  A    between atoms: N8_8  and  C20_20 
REMARK    7  A    between atoms: N9_9  and  C32_32 
REMARK    8  A    between atoms: C11_11  and  C16_16 
REMARK    9  A    between atoms: C12_12  and  C13_13 
REMARK   10  A    between atoms: C13_13  and  C17_17 
REMARK   11  A    between atoms: C20_20  and  C21_21 
REMARK   12  A    between atoms: C22_22  and  C28_28 
REMARK   13  A    between atoms: C25_25  and  C32_32 
ROOT
HETATM    1  O1  UNK     0      -1.264   5.681   1.946  1.00  0.00    -0.277 OA
HETATM    2  N6  UNK     0      -3.414   6.273   2.407  1.00  0.00    -0.238 NA
HETATM    3  C11 UNK     0      -3.249   7.338   3.404  1.00  0.00     0.159 C 
HETATM    4  C12 UNK     0      -2.396   5.885   1.512  1.00  0.00     0.234 C 
HETATM    5  C14 UNK     0      -4.574   7.195   2.083  1.00  0.00     0.099 C 
HETATM    6  C15 UNK     0      -4.047   8.497   2.870  1.00  0.00     0.045 C 
ENDROOT
BRANCH   4   7
HETATM    7  C13 UNK     0      -2.657   5.722  -0.005  1.00  0.00     0.310 C 
BRANCH   7   8
HETATM    8  N7  UNK     0      -2.451   4.291  -0.398  1.00  0.00     0.106 N 
HETATM    9  H38 UNK     0      -1.639   4.234  -1.093  1.00  0.00     0.317 HD
BRANCH   8  10
HETATM   10  C22 UNK     0      -3.677   3.715  -1.036  1.00  0.00     0.381 C 
BRANCH  10  11
HETATM   11  C28 UNK     0      -3.280   2.709  -2.125  1.00  0.00     0.287 C 
HETATM   12  O4  UNK     0      -2.471   1.818  -1.875  1.00  0.00    -0.263 OA
BRANCH  11  13
HETATM   13  O3  UNK     0      -3.829   2.807  -3.389  1.00  0.00    -0.321 OA
BRANCH  13  14
HETATM   14  C33 UNK     0      -4.889   3.752  -3.645  1.00  0.00     0.174 C 
HETATM   15  C34 UNK     0      -6.117   3.013  -4.245  1.00  0.00     0.034 C 
ENDBRANCH  13  14
ENDBRANCH  11  13
ENDBRANCH  10  11
ENDBRANCH   8  10
ENDBRANCH   7   8
BRANCH   7  16
HETATM   16  C17 UNK     0      -1.660   6.630  -0.807  1.00  0.00     0.028 C 
HETATM   17  C18 UNK     0      -1.923   8.136  -0.497  1.00  0.00     0.009 C 
HETATM   18  C23 UNK     0      -0.857   9.015  -1.226  1.00  0.00     0.000 C 
HETATM   19  C29 UNK     0      -0.783   8.691  -2.758  1.00  0.00     0.000 C 
HETATM   20  C24 UNK     0      -1.889   7.672  -3.180  1.00  0.00     0.000 C 
HETATM   21  C19 UNK     0      -1.740   6.355  -2.351  1.00  0.00     0.007 C 
ENDBRANCH   7  16
ENDBRANCH   4   7
BRANCH   3  22
HETATM   22  C16 UNK     0      -3.771   6.903   4.788  1.00  0.00     0.236 C 
HETATM   23  O2  UNK     0      -4.347   7.712   5.508  1.00  0.00    -0.272 OA
HETATM   24  N8  UNK     0      -3.578   5.585   5.235  1.00  0.00    -0.355 N 
HETATM   25  H39 UNK     0      -3.080   4.863   4.622  1.00  0.00     0.162 HD
BRANCH  24  26
HETATM   26  C20 UNK     0      -4.090   5.220   6.590  1.00  0.00     0.161 C 
BRANCH  26  27
HETATM   27  C21 UNK     0      -2.974   5.026   7.633  1.00  0.00    -0.040 A 
HETATM   28  C26 UNK     0      -3.249   4.277   8.792  1.00  0.00     0.010 A 
HETATM   29  C30 UNK     0      -2.253   4.094   9.769  1.00  0.00     0.016 A 
HETATM   30  C25 UNK     0      -0.980   4.664   9.592  1.00  0.00     0.011 A 
HETATM   31  C31 UNK     0      -0.701   5.413   8.432  1.00  0.00     0.016 A 
HETATM   32  C27 UNK     0      -1.698   5.595   7.451  1.00  0.00     0.010 A 
BRANCH  30  33
HETATM   33  C32 UNK     0       0.064   4.466  10.643  1.00  0.00     0.158 C 
HETATM   34  N10 UNK     0       0.160   5.312  11.651  1.00  0.00    -0.382 N 
HETATM   35  H41 UNK     0       0.913   5.170  12.399  1.00  0.00     0.157 HD
HETATM   36  H36 UNK     0      -0.514   6.139  11.722  1.00  0.00     0.157 HD
BRANCH  33  37
HETATM   37  N9  UNK     0       0.949   3.380  10.550  1.00  0.00    -0.118 NA
BRANCH  37  38
HETATM   38  O5  UNK     0       2.350   3.511  11.016  1.00  0.00    -0.264 OA
HETATM   39  H37 UNK     0       2.382   3.421  12.061  1.00  0.00     0.247 HD
ENDBRANCH  37  38
ENDBRANCH  33  37
ENDBRANCH  30  33
ENDBRANCH  26  27
ENDBRANCH  24  26
ENDBRANCH   3  22
TORSDOF 13
ENDMDL
MODEL 7
REMARK VINA RESULT:    -7.054      4.160      6.366
REMARK INTER + INTRA:         -13.616
REMARK INTER:                 -12.728
REMARK INTRA:                  -0.888
REMARK UNBOUND:                -1.406
REMARK  13 active torsions:
REMARK  status: ('A' for Active; 'I' for Inactive)
REMARK    1  A    between atoms: O3_3  and  C28_28 
REMARK    2  A    between atoms: O3_3  and  C33_33 
REMARK    3  A    between atoms: O5_5  and  N9_9 
REMARK       I    between atoms: N6_6  and  C12_12 
REMARK    4  A    between atoms: N7_7  and  C22_22 
REMARK    5  A    between atoms: N7_7  and  C13_13 
REMARK       I    between atoms: N8_8  and  C16_16 
REMARK    6  A    between atoms: N8_8  and  C20_20 
REMARK    7  A    between atoms: N9_9  and  C32_32 
REMARK    8  A    between atoms: C11_11  and  C16_16 
REMARK    9  A    between atoms: C12_12  and  C13_13 
REMARK   10  A    between atoms: C13_13  and  C17_17 
REMARK   11  A    between atoms: C20_20  and  C21_21 
REMARK   12  A    between atoms: C22_22  and  C28_28 
REMARK   13  A    between atoms: C25_25  and  C32_32 
ROOT
HETATM    1  O1  UNK     0      -3.170   4.065  -0.015  1.00  0.00    -0.277 OA
HETATM    2  N6  UNK     0      -2.413   6.101   0.667  1.00  0.00    -0.238 NA
HETATM    3  C11 UNK     0      -1.600   5.767   1.844  1.00  0.00     0.159 C 
HETATM    4  C12 UNK     0      -2.739   5.170  -0.339  1.00  0.00     0.234 C 
HETATM    5  C14 UNK     0      -1.304   7.133   0.592  1.00  0.00     0.099 C 
HETATM    6  C15 UNK     0      -0.265   6.414   1.591  1.00  0.00     0.045 C 
ENDROOT
BRANCH   4   7
HETATM    7  C13 UNK     0      -2.559   5.490  -1.843  1.00  0.00     0.310 C 
BRANCH   7   8
HETATM    8  N7  UNK     0      -3.849   5.249  -2.565  1.00  0.00     0.106 N 
HETATM    9  H38 UNK     0      -3.673   5.307  -3.619  1.00  0.00     0.317 HD
BRANCH   8  10
HETATM   10  C22 UNK     0      -4.887   6.261  -2.190  1.00  0.00     0.381 C 
BRANCH  10  11
HETATM   11  C28 UNK     0      -6.222   5.562  -1.900  1.00  0.00     0.287 C 
HETATM   12  O4  UNK     0      -6.513   4.522  -2.487  1.00  0.00    -0.263 OA
BRANCH  11  13
HETATM   13  O3  UNK     0      -7.100   6.103  -0.981  1.00  0.00    -0.321 OA
BRANCH  13  14
HETATM   14  C33 UNK     0      -6.955   5.798   0.422  1.00  0.00     0.174 C 
HETATM   15  C34 UNK     0      -6.214   6.960   1.139  1.00  0.00     0.034 C 
ENDBRANCH  13  14
ENDBRANCH  11  13
ENDBRANCH  10  11
ENDBRANCH   8  10
ENDBRANCH   7   8
BRANCH   7  16
HETATM   16  C17 UNK     0      -1.445   4.565  -2.444  1.00  0.00     0.028 C 
HETATM   17  C18 UNK     0      -2.010   3.138  -2.721  1.00  0.00     0.009 C 
HETATM   18  C23 UNK     0      -0.916   2.264  -3.411  1.00  0.00     0.000 C 
HETATM   19  C29 UNK     0       0.426   2.262  -2.600  1.00  0.00     0.000 C 
HETATM   20  C24 UNK     0       0.275   3.023  -1.245  1.00  0.00     0.000 C 
HETATM   21  C19 UNK     0      -0.184   4.494  -1.511  1.00  0.00     0.007 C 
ENDBRANCH   7  16
ENDBRANCH   4   7
BRANCH   3  22
HETATM   22  C16 UNK     0      -2.236   6.306   3.141  1.00  0.00     0.236 C 
HETATM   23  O2  UNK     0      -2.068   7.478   3.465  1.00  0.00    -0.272 OA
HETATM   24  N8  UNK     0      -2.996   5.458   3.963  1.00  0.00    -0.355 N 
HETATM   25  H39 UNK     0      -3.156   4.433   3.699  1.00  0.00     0.162 HD
BRANCH  24  26
HETATM   26  C20 UNK     0      -3.576   6.028   5.216  1.00  0.00     0.161 C 
BRANCH  26  27
HETATM   27  C21 UNK     0      -2.778   5.662   6.481  1.00  0.00    -0.040 A 
HETATM   28  C26 UNK     0      -1.499   6.219   6.664  1.00  0.00     0.010 A 
HETATM   29  C30 UNK     0      -0.741   5.893   7.802  1.00  0.00     0.016 A 
HETATM   30  C25 UNK     0      -1.258   5.005   8.762  1.00  0.00     0.011 A 
HETATM   31  C31 UNK     0      -2.540   4.447   8.584  1.00  0.00     0.016 A 
HETATM   32  C27 UNK     0      -3.301   4.775   7.443  1.00  0.00     0.010 A 
BRANCH  30  33
HETATM   33  C32 UNK     0      -0.437   4.663   9.963  1.00  0.00     0.158 C 
HETATM   34  N10 UNK     0      -0.909   4.882  11.176  1.00  0.00    -0.382 N 
HETATM   35  H41 UNK     0      -0.315   4.641  12.033  1.00  0.00     0.157 HD
HETATM   36  H36 UNK     0      -1.886   5.300  11.302  1.00  0.00     0.157 HD
BRANCH  33  37
HETATM   37  N9  UNK     0       0.844   4.114   9.797  1.00  0.00    -0.118 NA
BRANCH  37  38
HETATM   38  O5  UNK     0       1.311   3.017  10.678  1.00  0.00    -0.264 OA
HETATM   39  H37 UNK     0       2.346   3.106  10.830  1.00  0.00     0.247 HD
ENDBRANCH  37  38
ENDBRANCH  33  37
ENDBRANCH  30  33
ENDBRANCH  26  27
ENDBRANCH  24  26
ENDBRANCH   3  22
TORSDOF 13
ENDMDL
MODEL 8
REMARK VINA RESULT:    -7.043      4.014     10.278
REMARK INTER + INTRA:         -13.595
REMARK INTER:                 -12.228
REMARK INTRA:                  -1.367
REMARK UNBOUND:                -1.406
REMARK  13 active torsions:
REMARK  status: ('A' for Active; 'I' for Inactive)
REMARK    1  A    between atoms: O3_3  and  C28_28 
REMARK    2  A    between atoms: O3_3  and  C33_33 
REMARK    3  A    between atoms: O5_5  and  N9_9 
REMARK       I    between atoms: N6_6  and  C12_12 
REMARK    4  A    between atoms: N7_7  and  C22_22 
REMARK    5  A    between atoms: N7_7  and  C13_13 
REMARK       I    between atoms: N8_8  and  C16_16 
REMARK    6  A    between atoms: N8_8  and  C20_20 
REMARK    7  A    between atoms: N9_9  and  C32_32 
REMARK    8  A    between atoms: C11_11  and  C16_16 
REMARK    9  A    between atoms: C12_12  and  C13_13 
REMARK   10  A    between atoms: C13_13  and  C17_17 
REMARK   11  A    between atoms: C20_20  and  C21_21 
REMARK   12  A    between atoms: C22_22  and  C28_28 
REMARK   13  A    between atoms: C25_25  and  C32_32 
ROOT
HETATM    1  O1  UNK     0      -4.038   4.033   1.712  1.00  0.00    -0.277 OA
HETATM    2  N6  UNK     0      -4.649   6.029   0.801  1.00  0.00    -0.238 NA
HETATM    3  C11 UNK     0      -5.800   5.665  -0.034  1.00  0.00     0.159 C 
HETATM    4  C12 UNK     0      -4.193   5.241   1.878  1.00  0.00     0.234 C 
HETATM    5  C14 UNK     0      -5.527   7.260   0.915  1.00  0.00     0.099 C 
HETATM    6  C15 UNK     0      -6.899   6.602   0.388  1.00  0.00     0.045 C 
ENDROOT
BRANCH   4   7
HETATM    7  C13 UNK     0      -3.893   5.850   3.269  1.00  0.00     0.310 C 
BRANCH   7   8
HETATM    8  N7  UNK     0      -2.542   5.397   3.734  1.00  0.00     0.106 N 
HETATM    9  H38 UNK     0      -2.625   5.026   4.734  1.00  0.00     0.317 HD
BRANCH   8  10
HETATM   10  C22 UNK     0      -1.549   6.516   3.711  1.00  0.00     0.381 C 
BRANCH  10  11
HETATM   11  C28 UNK     0      -0.456   6.229   2.672  1.00  0.00     0.287 C 
HETATM   12  O4  UNK     0      -0.758   6.046   1.495  1.00  0.00    -0.263 OA
BRANCH  11  13
HETATM   13  O3  UNK     0       0.869   6.172   3.060  1.00  0.00    -0.321 OA
BRANCH  13  14
HETATM   14  C33 UNK     0       1.653   4.993   2.779  1.00  0.00     0.174 C 
HETATM   15  C34 UNK     0       1.519   3.982   3.951  1.00  0.00     0.034 C 
ENDBRANCH  13  14
ENDBRANCH  11  13
ENDBRANCH  10  11
ENDBRANCH   8  10
ENDBRANCH   7   8
BRANCH   7  16
HETATM   16  C17 UNK     0      -4.982   5.375   4.293  1.00  0.00     0.028 C 
HETATM   17  C18 UNK     0      -6.076   6.471   4.475  1.00  0.00     0.009 C 
HETATM   18  C23 UNK     0      -7.201   5.938   5.418  1.00  0.00     0.000 C 
HETATM   19  C29 UNK     0      -6.620   5.398   6.771  1.00  0.00     0.000 C 
HETATM   20  C24 UNK     0      -5.084   5.659   6.877  1.00  0.00     0.000 C 
HETATM   21  C19 UNK     0      -4.347   4.984   5.674  1.00  0.00     0.007 C 
ENDBRANCH   7  16
ENDBRANCH   4   7
BRANCH   3  22
HETATM   22  C16 UNK     0      -5.484   5.829  -1.535  1.00  0.00     0.236 C 
HETATM   23  O2  UNK     0      -6.188   6.553  -2.233  1.00  0.00    -0.272 OA
HETATM   24  N8  UNK     0      -4.400   5.145  -2.110  1.00  0.00    -0.355 N 
HETATM   25  H39 UNK     0      -3.774   4.510  -1.518  1.00  0.00     0.162 HD
BRANCH  24  26
HETATM   26  C20 UNK     0      -4.149   5.328  -3.571  1.00  0.00     0.161 C 
BRANCH  26  27
HETATM   27  C21 UNK     0      -4.652   4.154  -4.430  1.00  0.00    -0.040 A 
HETATM   28  C26 UNK     0      -6.038   3.945  -4.553  1.00  0.00     0.010 A 
HETATM   29  C30 UNK     0      -6.527   2.873  -5.320  1.00  0.00     0.016 A 
HETATM   30  C25 UNK     0      -5.631   2.002  -5.965  1.00  0.00     0.011 A 
HETATM   31  C31 UNK     0      -4.242   2.209  -5.847  1.00  0.00     0.016 A 
HETATM   32  C27 UNK     0      -3.751   3.285  -5.079  1.00  0.00     0.010 A 
BRANCH  30  33
HETATM   33  C32 UNK     0      -6.167   0.863  -6.771  1.00  0.00     0.158 C 
HETATM   34  N10 UNK     0      -6.772   1.089  -7.922  1.00  0.00    -0.382 N 
HETATM   35  H41 UNK     0      -7.159   0.272  -8.493  1.00  0.00     0.157 HD
HETATM   36  H36 UNK     0      -6.874   2.091  -8.284  1.00  0.00     0.157 HD
BRANCH  33  37
HETATM   37  N9  UNK     0      -6.032  -0.451  -6.295  1.00  0.00    -0.118 NA
BRANCH  37  38
HETATM   38  O5  UNK     0      -7.199  -1.168  -5.727  1.00  0.00    -0.264 OA
HETATM   39  H37 UNK     0      -7.457  -1.969  -6.355  1.00  0.00     0.247 HD
ENDBRANCH  37  38
ENDBRANCH  33  37
ENDBRANCH  30  33
ENDBRANCH  26  27
ENDBRANCH  24  26
ENDBRANCH   3  22
TORSDOF 13
ENDMDL
MODEL 9
REMARK VINA RESULT:    -7.015      4.857      6.569
REMARK INTER + INTRA:         -13.548
REMARK INTER:                 -11.806
REMARK INTRA:                  -1.742
REMARK UNBOUND:                -1.406
REMARK  13 active torsions:
REMARK  status: ('A' for Active; 'I' for Inactive)
REMARK    1  A    between atoms: O3_3  and  C28_28 
REMARK    2  A    between atoms: O3_3  and  C33_33 
REMARK    3  A    between atoms: O5_5  and  N9_9 
REMARK       I    between atoms: N6_6  and  C12_12 
REMARK    4  A    between atoms: N7_7  and  C22_22 
REMARK    5  A    between atoms: N7_7  and  C13_13 
REMARK       I    between atoms: N8_8  and  C16_16 
REMARK    6  A    between atoms: N8_8  and  C20_20 
REMARK    7  A    between atoms: N9_9  and  C32_32 
REMARK    8  A    between atoms: C11_11  and  C16_16 
REMARK    9  A    between atoms: C12_12  and  C13_13 
REMARK   10  A    between atoms: C13_13  and  C17_17 
REMARK   11  A    between atoms: C20_20  and  C21_21 
REMARK   12  A    between atoms: C22_22  and  C28_28 
REMARK   13  A    between atoms: C25_25  and  C32_32 
ROOT
HETATM    1  O1  UNK     0      -1.799   6.450  -4.082  1.00  0.00    -0.277 OA
HETATM    2  N6  UNK     0      -3.841   5.465  -4.286  1.00  0.00    -0.238 NA
HETATM    3  C11 UNK     0      -4.689   6.570  -4.750  1.00  0.00     0.159 C 
HETATM    4  C12 UNK     0      -2.438   5.456  -4.419  1.00  0.00     0.234 C 
HETATM    5  C14 UNK     0      -4.821   4.754  -5.199  1.00  0.00     0.099 C 
HETATM    6  C15 UNK     0      -5.369   6.048  -5.986  1.00  0.00     0.045 C 
ENDROOT
BRANCH   4   7
HETATM    7  C13 UNK     0      -1.676   4.236  -4.992  1.00  0.00     0.310 C 
BRANCH   7   8
HETATM    8  N7  UNK     0      -0.594   3.828  -4.040  1.00  0.00     0.106 N 
HETATM    9  H38 UNK     0      -0.166   2.906  -4.373  1.00  0.00     0.317 HD
BRANCH   8  10
HETATM   10  C22 UNK     0      -1.124   3.644  -2.652  1.00  0.00     0.381 C 
BRANCH  10  11
HETATM   11  C28 UNK     0      -1.563   2.188  -2.446  1.00  0.00     0.287 C 
HETATM   12  O4  UNK     0      -0.855   1.268  -2.849  1.00  0.00    -0.263 OA
BRANCH  11  13
HETATM   13  O3  UNK     0      -2.758   1.910  -1.809  1.00  0.00    -0.321 OA
BRANCH  13  14
HETATM   14  C33 UNK     0      -3.916   2.734  -2.057  1.00  0.00     0.174 C 
HETATM   15  C34 UNK     0      -4.314   3.486  -0.756  1.00  0.00     0.034 C 
ENDBRANCH  13  14
ENDBRANCH  11  13
ENDBRANCH  10  11
ENDBRANCH   8  10
ENDBRANCH   7   8
BRANCH   7  16
HETATM   16  C17 UNK     0      -1.038   4.619  -6.372  1.00  0.00     0.028 C 
HETATM   17  C18 UNK     0      -2.134   4.697  -7.478  1.00  0.00     0.009 C 
HETATM   18  C23 UNK     0      -1.494   5.178  -8.819  1.00  0.00     0.000 C 
HETATM   19  C29 UNK     0      -0.256   4.303  -9.220  1.00  0.00     0.000 C 
HETATM   20  C24 UNK     0      -0.070   3.096  -8.247  1.00  0.00     0.000 C 
HETATM   21  C19 UNK     0       0.100   3.618  -6.782  1.00  0.00     0.007 C 
ENDBRANCH   7  16
ENDBRANCH   4   7
BRANCH   3  22
HETATM   22  C16 UNK     0      -5.726   6.974  -3.682  1.00  0.00     0.236 C 
HETATM   23  O2  UNK     0      -6.516   7.885  -3.908  1.00  0.00    -0.272 OA
HETATM   24  N8  UNK     0      -5.762   6.311  -2.444  1.00  0.00    -0.355 N 
HETATM   25  H39 UNK     0      -5.083   5.513  -2.226  1.00  0.00     0.162 HD
BRANCH  24  26
HETATM   26  C20 UNK     0      -6.776   6.752  -1.440  1.00  0.00     0.161 C 
BRANCH  26  27
HETATM   27  C21 UNK     0      -6.347   6.497   0.017  1.00  0.00    -0.040 A 
HETATM   28  C26 UNK     0      -7.281   5.951   0.916  1.00  0.00     0.010 A 
HETATM   29  C30 UNK     0      -6.921   5.720   2.256  1.00  0.00     0.016 A 
HETATM   30  C25 UNK     0      -5.626   6.036   2.702  1.00  0.00     0.011 A 
HETATM   31  C31 UNK     0      -4.687   6.581   1.804  1.00  0.00     0.016 A 
HETATM   32  C27 UNK     0      -5.046   6.811   0.460  1.00  0.00     0.010 A 
BRANCH  30  33
HETATM   33  C32 UNK     0      -5.262   5.791   4.131  1.00  0.00     0.158 C 
HETATM   34  N10 UNK     0      -5.893   6.431   5.097  1.00  0.00    -0.382 N 
HETATM   35  H41 UNK     0      -5.625   6.257   6.118  1.00  0.00     0.157 HD
HETATM   36  H36 UNK     0      -6.672   7.125   4.859  1.00  0.00     0.157 HD
BRANCH  33  37
HETATM   37  N9  UNK     0      -4.240   4.881   4.443  1.00  0.00    -0.118 NA
BRANCH  37  38
HETATM   38  O5  UNK     0      -4.303   4.078   5.688  1.00  0.00    -0.264 OA
HETATM   39  H37 UNK     0      -5.049   3.346   5.596  1.00  0.00     0.247 HD
ENDBRANCH  37  38
ENDBRANCH  33  37
ENDBRANCH  30  33
ENDBRANCH  26  27
ENDBRANCH  24  26
ENDBRANCH   3  22
TORSDOF 13
ENDMDL
