MODEL 1
REMARK VINA RESULT:    -8.186      0.000      0.000
REMARK INTER + INTRA:         -17.984
REMARK INTER:                 -16.561
REMARK INTRA:                  -1.423
REMARK UNBOUND:                -1.423
REMARK  18 active torsions:
REMARK  status: ('A' for Active; 'I' for Inactive)
REMARK    1  A    between atoms: O2_2  and  C37_37 
REMARK    2  A    between atoms: O2_2  and  C39_39 
REMARK    3  A    between atoms: O4_4  and  C38_38 
REMARK    4  A    between atoms: O4_4  and  C40_40 
REMARK    5  A    between atoms: N8_8  and  C24_24 
REMARK    6  A    between atoms: N8_8  and  C22_22 
REMARK       I    between atoms: N8_8  and  C19_19 
REMARK    7  A    between atoms: N9_9  and  C21_21 
REMARK    8  A    between atoms: N9_9  and  C25_25 
REMARK       I    between atoms: N11_11  and  C38_38 
REMARK    9  A    between atoms: N12_12  and  C35_35 
REMARK   10  A    between atoms: C15_15  and  C21_21 
REMARK   11  A    between atoms: C16_16  and  C19_19 
REMARK   12  A    between atoms: C24_24  and  C27_27 
REMARK   13  A    between atoms: C27_27  and  C37_37 
REMARK   14  A    between atoms: C30_30  and  C35_35 
REMARK   15  A    between atoms: C40_40  and  C42_42 
REMARK   16  A    between atoms: C42_42  and  C43_43 
REMARK   17  A    between atoms: C43_43  and  C44_44 
REMARK   18  A    between atoms: C44_44  and  C45_45 
ROOT
HETATM    1  O1  UNK     0      -6.922   6.442  -1.307  1.00  0.00    -0.267 OA
HETATM    2  N8  UNK     0      -5.424   4.690  -1.465  1.00  0.00    -0.298 N 
HETATM    3  C19 UNK     0      -6.174   5.643  -0.702  1.00  0.00     0.259 C 
ENDROOT
BRANCH   3   4
HETATM    4  C16 UNK     0      -6.108   5.715   0.821  1.00  0.00     0.035 A 
HETATM    5  C20 UNK     0      -7.306   5.589   1.613  1.00  0.00     0.019 A 
HETATM    6  C18 UNK     0      -7.262   5.660   3.046  1.00  0.00     0.033 A 
HETATM    7  C13 UNK     0      -5.985   5.860   3.643  1.00  0.00     0.064 A 
HETATM    8  N6  UNK     0      -5.637   5.970   4.969  1.00  0.00    -0.336 N 
HETATM    9  C14 UNK     0      -4.806   5.989   2.877  1.00  0.00     0.086 A 
HETATM   10  C15 UNK     0      -4.261   6.160   5.016  1.00  0.00     0.124 A 
HETATM   11  C23 UNK     0      -6.583   5.893   6.156  1.00  0.00     0.158 C 
HETATM   12  N7  UNK     0      -3.727   6.177   3.725  1.00  0.00    -0.231 NA
HETATM   13  C17 UNK     0      -4.834   5.919   1.452  1.00  0.00     0.051 A 
BRANCH  10  14
HETATM   14  C21 UNK     0      -3.453   6.323   6.339  1.00  0.00     0.198 C 
BRANCH  14  15
HETATM   15  N9  UNK     0      -3.163   5.006   7.041  1.00  0.00    -0.383 N 
HETATM   16  H47 UNK     0      -3.818   4.169   6.915  1.00  0.00     0.160 HD
BRANCH  15  17
HETATM   17  C25 UNK     0      -1.980   4.900   7.888  1.00  0.00     0.028 A 
HETATM   18  C28 UNK     0      -2.102   4.455   9.244  1.00  0.00     0.030 A 
HETATM   19  C33 UNK     0      -0.934   4.352  10.064  1.00  0.00     0.017 A 
HETATM   20  C30 UNK     0       0.349   4.693   9.532  1.00  0.00     0.010 A 
HETATM   21  C34 UNK     0       0.474   5.137   8.180  1.00  0.00     0.017 A 
HETATM   22  C29 UNK     0      -0.692   5.238   7.362  1.00  0.00     0.030 A 
BRANCH  20  23
HETATM   23  C35 UNK     0       1.583   4.582  10.394  1.00  0.00     0.137 C 
HETATM   24  N11 UNK     0       2.294   5.678  10.686  1.00  0.00    -0.170 NA
HETATM   25  C38 UNK     0       3.523   5.551  11.556  1.00  0.00     0.388 C 
HETATM   26  O5  UNK     0       3.969   4.420  11.845  1.00  0.00    -0.236 OA
BRANCH  25  27
HETATM   27  O4  UNK     0       4.159   6.700  12.045  1.00  0.00    -0.302 OA
BRANCH  27  28
HETATM   28  C40 UNK     0       3.487   7.492  13.076  1.00  0.00     0.180 C 
BRANCH  28  29
HETATM   29  C42 UNK     0       3.216   8.946  12.534  1.00  0.00     0.027 C 
BRANCH  29  30
HETATM   30  C43 UNK     0       4.501   9.433  11.763  1.00  0.00     0.002 C 
BRANCH  30  31
HETATM   31  C44 UNK     0       4.132  10.642  10.822  1.00  0.00    -0.000 C 
BRANCH  31  32
HETATM   32  C45 UNK     0       4.551  11.987  11.535  1.00  0.00    -0.005 C 
HETATM   33  C46 UNK     0       5.729  11.702  12.546  1.00  0.00     0.005 C 
ENDBRANCH  31  32
ENDBRANCH  30  31
ENDBRANCH  29  30
ENDBRANCH  28  29
ENDBRANCH  27  28
ENDBRANCH  25  27
BRANCH  23  34
HETATM   34  N12 UNK     0       1.988   3.313  10.901  1.00  0.00    -0.383 N 
HETATM   35  H48 UNK     0       2.659   3.259  11.733  1.00  0.00     0.157 HD
HETATM   36  H49 UNK     0       1.621   2.414  10.451  1.00  0.00     0.157 HD
ENDBRANCH  23  34
ENDBRANCH  20  23
ENDBRANCH  15  17
ENDBRANCH  14  15
ENDBRANCH  10  14
ENDBRANCH   3   4
BRANCH   2  37
HETATM   37  C24 UNK     0      -4.550   3.616  -0.826  1.00  0.00     0.144 C 
BRANCH  37  38
HETATM   38  C27 UNK     0      -3.185   3.496  -1.630  1.00  0.00     0.131 C 
BRANCH  38  39
HETATM   39  C37 UNK     0      -2.187   4.585  -1.137  1.00  0.00     0.260 C 
HETATM   40  O3  UNK     0      -1.895   5.546  -1.880  1.00  0.00    -0.265 OA
BRANCH  39  41
HETATM   41  O2  UNK     0      -1.607   4.480   0.137  1.00  0.00    -0.322 OA
BRANCH  41  42
HETATM   42  C39 UNK     0      -0.530   5.395   0.523  1.00  0.00     0.174 C 
HETATM   43  C41 UNK     0       0.849   4.623   0.509  1.00  0.00     0.034 C 
ENDBRANCH  41  42
ENDBRANCH  39  41
ENDBRANCH  38  39
ENDBRANCH  37  38
ENDBRANCH   2  37
BRANCH   2  44
HETATM   44  C22 UNK     0      -5.652   4.704  -2.907  1.00  0.00     0.132 A 
HETATM   45  N10 UNK     0      -6.340   3.613  -3.520  1.00  0.00    -0.243 NA
HETATM   46  C31 UNK     0      -6.580   3.600  -4.929  1.00  0.00     0.119 A 
HETATM   47  C36 UNK     0      -6.127   4.689  -5.736  1.00  0.00     0.019 A 
HETATM   48  C32 UNK     0      -5.435   5.780  -5.126  1.00  0.00     0.005 A 
HETATM   49  C26 UNK     0      -5.197   5.793  -3.717  1.00  0.00     0.051 A 
ENDBRANCH   2  44
TORSDOF 18
ENDMDL
MODEL 2
REMARK VINA RESULT:    -8.012      1.602      2.101
REMARK INTER + INTRA:         -17.632
REMARK INTER:                 -16.197
REMARK INTRA:                  -1.434
REMARK UNBOUND:                -1.423
REMARK  18 active torsions:
REMARK  status: ('A' for Active; 'I' for Inactive)
REMARK    1  A    between atoms: O2_2  and  C37_37 
REMARK    2  A    between atoms: O2_2  and  C39_39 
REMARK    3  A    between atoms: O4_4  and  C38_38 
REMARK    4  A    between atoms: O4_4  and  C40_40 
REMARK    5  A    between atoms: N8_8  and  C24_24 
REMARK    6  A    between atoms: N8_8  and  C22_22 
REMARK       I    between atoms: N8_8  and  C19_19 
REMARK    7  A    between atoms: N9_9  and  C21_21 
REMARK    8  A    between atoms: N9_9  and  C25_25 
REMARK       I    between atoms: N11_11  and  C38_38 
REMARK    9  A    between atoms: N12_12  and  C35_35 
REMARK   10  A    between atoms: C15_15  and  C21_21 
REMARK   11  A    between atoms: C16_16  and  C19_19 
REMARK   12  A    between atoms: C24_24  and  C27_27 
REMARK   13  A    between atoms: C27_27  and  C37_37 
REMARK   14  A    between atoms: C30_30  and  C35_35 
REMARK   15  A    between atoms: C40_40  and  C42_42 
REMARK   16  A    between atoms: C42_42  and  C43_43 
REMARK   17  A    between atoms: C43_43  and  C44_44 
REMARK   18  A    between atoms: C44_44  and  C45_45 
ROOT
HETATM    1  O1  UNK     0      -6.787   6.555  -1.344  1.00  0.00    -0.267 OA
HETATM    2  N8  UNK     0      -4.942   5.173  -1.509  1.00  0.00    -0.298 N 
HETATM    3  C19 UNK     0      -5.799   6.049  -0.766  1.00  0.00     0.259 C 
ENDROOT
BRANCH   3   4
HETATM    4  C16 UNK     0      -5.565   6.378   0.706  1.00  0.00     0.035 A 
HETATM    5  C20 UNK     0      -4.855   7.574   1.085  1.00  0.00     0.019 A 
HETATM    6  C18 UNK     0      -4.621   7.896   2.464  1.00  0.00     0.033 A 
HETATM    7  C13 UNK     0      -5.122   6.981   3.433  1.00  0.00     0.064 A 
HETATM    8  N6  UNK     0      -5.050   7.021   4.805  1.00  0.00    -0.336 N 
HETATM    9  C14 UNK     0      -5.815   5.805   3.073  1.00  0.00     0.086 A 
HETATM   10  C15 UNK     0      -5.694   5.885   5.282  1.00  0.00     0.124 A 
HETATM   11  C23 UNK     0      -4.392   8.107   5.640  1.00  0.00     0.158 C 
HETATM   12  N7  UNK     0      -6.174   5.116   4.220  1.00  0.00    -0.231 NA
HETATM   13  C17 UNK     0      -6.056   5.473   1.707  1.00  0.00     0.051 A 
BRANCH  10  14
HETATM   14  C21 UNK     0      -5.848   5.546   6.796  1.00  0.00     0.198 C 
BRANCH  14  15
HETATM   15  N9  UNK     0      -5.099   4.292   7.217  1.00  0.00    -0.383 N 
HETATM   16  H47 UNK     0      -5.487   3.324   6.979  1.00  0.00     0.160 HD
BRANCH  15  17
HETATM   17  C25 UNK     0      -3.844   4.428   7.948  1.00  0.00     0.028 A 
HETATM   18  C28 UNK     0      -3.705   3.857   9.254  1.00  0.00     0.030 A 
HETATM   19  C33 UNK     0      -2.468   3.995   9.960  1.00  0.00     0.017 A 
HETATM   20  C30 UNK     0      -1.376   4.700   9.364  1.00  0.00     0.010 A 
HETATM   21  C34 UNK     0      -1.511   5.271   8.062  1.00  0.00     0.017 A 
HETATM   22  C29 UNK     0      -2.745   5.132   7.357  1.00  0.00     0.030 A 
BRANCH  20  23
HETATM   23  C35 UNK     0      -0.069   4.844  10.105  1.00  0.00     0.137 C 
HETATM   24  N11 UNK     0       0.733   5.886   9.850  1.00  0.00    -0.170 NA
HETATM   25  C38 UNK     0       2.034   6.019  10.605  1.00  0.00     0.388 C 
HETATM   26  O5  UNK     0       2.439   5.078  11.322  1.00  0.00    -0.236 OA
BRANCH  25  27
HETATM   27  O4  UNK     0       2.785   7.198  10.509  1.00  0.00    -0.302 OA
BRANCH  27  28
HETATM   28  C40 UNK     0       2.944   8.031  11.702  1.00  0.00     0.180 C 
BRANCH  28  29
HETATM   29  C42 UNK     0       2.950   9.551  11.290  1.00  0.00     0.027 C 
BRANCH  29  30
HETATM   30  C43 UNK     0       4.402  10.119  11.523  1.00  0.00     0.002 C 
BRANCH  30  31
HETATM   31  C44 UNK     0       4.335  11.678  11.746  1.00  0.00    -0.000 C 
BRANCH  31  32
HETATM   32  C45 UNK     0       5.697  12.159  12.382  1.00  0.00    -0.005 C 
HETATM   33  C46 UNK     0       6.370  10.959  13.155  1.00  0.00     0.005 C 
ENDBRANCH  31  32
ENDBRANCH  30  31
ENDBRANCH  29  30
ENDBRANCH  28  29
ENDBRANCH  27  28
ENDBRANCH  25  27
BRANCH  23  34
HETATM   34  N12 UNK     0       0.309   3.876  11.080  1.00  0.00    -0.383 N 
HETATM   35  H48 UNK     0       0.927   3.048  10.801  1.00  0.00     0.157 HD
HETATM   36  H49 UNK     0      -0.025   3.976  12.092  1.00  0.00     0.157 HD
ENDBRANCH  23  34
ENDBRANCH  20  23
ENDBRANCH  15  17
ENDBRANCH  14  15
ENDBRANCH  10  14
ENDBRANCH   3   4
BRANCH   2  37
HETATM   37  C24 UNK     0      -3.763   4.435  -0.883  1.00  0.00     0.144 C 
BRANCH  37  38
HETATM   38  C27 UNK     0      -2.507   4.523  -1.852  1.00  0.00     0.131 C 
BRANCH  38  39
HETATM   39  C37 UNK     0      -1.935   3.095  -2.101  1.00  0.00     0.260 C 
HETATM   40  O3  UNK     0      -2.617   2.090  -1.805  1.00  0.00    -0.265 OA
BRANCH  39  41
HETATM   41  O2  UNK     0      -0.651   2.938  -2.645  1.00  0.00    -0.322 OA
BRANCH  41  42
HETATM   42  C39 UNK     0      -0.471   2.150  -3.867  1.00  0.00     0.174 C 
HETATM   43  C41 UNK     0       0.256   0.792  -3.517  1.00  0.00     0.034 C 
ENDBRANCH  41  42
ENDBRANCH  39  41
ENDBRANCH  38  39
ENDBRANCH  37  38
ENDBRANCH   2  37
BRANCH   2  44
HETATM   44  C22 UNK     0      -5.341   4.904  -2.887  1.00  0.00     0.132 A 
HETATM   45  N10 UNK     0      -6.096   3.728  -3.182  1.00  0.00    -0.243 NA
HETATM   46  C31 UNK     0      -6.504   3.438  -4.521  1.00  0.00     0.119 A 
HETATM   47  C36 UNK     0      -6.154   4.334  -5.579  1.00  0.00     0.019 A 
HETATM   48  C32 UNK     0      -5.397   5.510  -5.287  1.00  0.00     0.005 A 
HETATM   49  C26 UNK     0      -4.990   5.799  -3.947  1.00  0.00     0.051 A 
ENDBRANCH   2  44
TORSDOF 18
ENDMDL
MODEL 3
REMARK VINA RESULT:    -7.941      2.564      4.012
REMARK INTER + INTRA:         -17.488
REMARK INTER:                 -15.463
REMARK INTRA:                  -2.026
REMARK UNBOUND:                -1.423
REMARK  18 active torsions:
REMARK  status: ('A' for Active; 'I' for Inactive)
REMARK    1  A    between atoms: O2_2  and  C37_37 
REMARK    2  A    between atoms: O2_2  and  C39_39 
REMARK    3  A    between atoms: O4_4  and  C38_38 
REMARK    4  A    between atoms: O4_4  and  C40_40 
REMARK    5  A    between atoms: N8_8  and  C24_24 
REMARK    6  A    between atoms: N8_8  and  C22_22 
REMARK       I    between atoms: N8_8  and  C19_19 
REMARK    7  A    between atoms: N9_9  and  C21_21 
REMARK    8  A    between atoms: N9_9  and  C25_25 
REMARK       I    between atoms: N11_11  and  C38_38 
REMARK    9  A    between atoms: N12_12  and  C35_35 
REMARK   10  A    between atoms: C15_15  and  C21_21 
REMARK   11  A    between atoms: C16_16  and  C19_19 
REMARK   12  A    between atoms: C24_24  and  C27_27 
REMARK   13  A    between atoms: C27_27  and  C37_37 
REMARK   14  A    between atoms: C30_30  and  C35_35 
REMARK   15  A    between atoms: C40_40  and  C42_42 
REMARK   16  A    between atoms: C42_42  and  C43_43 
REMARK   17  A    between atoms: C43_43  and  C44_44 
REMARK   18  A    between atoms: C44_44  and  C45_45 
ROOT
HETATM    1  O1  UNK     0      -0.959   4.254  -2.253  1.00  0.00    -0.267 OA
HETATM    2  N8  UNK     0      -2.705   4.909  -3.617  1.00  0.00    -0.298 N 
HETATM    3  C19 UNK     0      -2.055   4.850  -2.341  1.00  0.00     0.259 C 
ENDROOT
BRANCH   3   4
HETATM    4  C16 UNK     0      -2.638   5.497  -1.088  1.00  0.00     0.035 A 
HETATM    5  C20 UNK     0      -2.511   6.916  -0.869  1.00  0.00     0.019 A 
HETATM    6  C18 UNK     0      -3.048   7.539   0.307  1.00  0.00     0.033 A 
HETATM    7  C13 UNK     0      -3.710   6.691   1.240  1.00  0.00     0.064 A 
HETATM    8  N6  UNK     0      -4.312   6.997   2.438  1.00  0.00    -0.336 N 
HETATM    9  C14 UNK     0      -3.837   5.301   1.039  1.00  0.00     0.086 A 
HETATM   10  C15 UNK     0      -4.806   5.809   2.962  1.00  0.00     0.124 A 
HETATM   11  C23 UNK     0      -4.418   8.378   3.065  1.00  0.00     0.158 C 
HETATM   12  N7  UNK     0      -4.518   4.743   2.107  1.00  0.00    -0.231 NA
HETATM   13  C17 UNK     0      -3.309   4.667  -0.126  1.00  0.00     0.051 A 
BRANCH  10  14
HETATM   14  C21 UNK     0      -5.574   5.711   4.316  1.00  0.00     0.198 C 
BRANCH  14  15
HETATM   15  N9  UNK     0      -5.211   4.480   5.132  1.00  0.00    -0.383 N 
HETATM   16  H47 UNK     0      -5.661   3.534   4.915  1.00  0.00     0.160 HD
BRANCH  15  17
HETATM   17  C25 UNK     0      -4.242   4.608   6.214  1.00  0.00     0.028 A 
HETATM   18  C28 UNK     0      -3.337   5.718   6.245  1.00  0.00     0.030 A 
HETATM   19  C33 UNK     0      -2.393   5.834   7.314  1.00  0.00     0.017 A 
HETATM   20  C30 UNK     0      -2.352   4.844   8.346  1.00  0.00     0.010 A 
HETATM   21  C34 UNK     0      -3.252   3.736   8.318  1.00  0.00     0.017 A 
HETATM   22  C29 UNK     0      -4.195   3.622   7.252  1.00  0.00     0.030 A 
BRANCH  20  23
HETATM   23  C35 UNK     0      -1.359   4.966   9.476  1.00  0.00     0.137 C 
HETATM   24  N11 UNK     0      -0.121   5.417   9.232  1.00  0.00    -0.170 NA
HETATM   25  C38 UNK     0       0.858   5.539  10.376  1.00  0.00     0.388 C 
HETATM   26  O5  UNK     0       0.577   5.057  11.493  1.00  0.00    -0.236 OA
BRANCH  25  27
HETATM   27  O4  UNK     0       2.080   6.199  10.186  1.00  0.00    -0.302 OA
BRANCH  27  28
HETATM   28  C40 UNK     0       2.508   7.186  11.177  1.00  0.00     0.180 C 
BRANCH  28  29
HETATM   29  C42 UNK     0       1.520   8.413  11.165  1.00  0.00     0.027 C 
BRANCH  29  30
HETATM   30  C43 UNK     0       1.704   9.208  12.513  1.00  0.00     0.002 C 
BRANCH  30  31
HETATM   31  C44 UNK     0       2.040  10.716  12.201  1.00  0.00    -0.000 C 
BRANCH  31  32
HETATM   32  C45 UNK     0       3.597  10.930  12.346  1.00  0.00    -0.005 C 
HETATM   33  C46 UNK     0       4.287  10.747  10.938  1.00  0.00     0.005 C 
ENDBRANCH  31  32
ENDBRANCH  30  31
ENDBRANCH  29  30
ENDBRANCH  28  29
ENDBRANCH  27  28
ENDBRANCH  25  27
BRANCH  23  34
HETATM   34  N12 UNK     0      -1.739   4.607  10.802  1.00  0.00    -0.383 N 
HETATM   35  H48 UNK     0      -2.749   4.748  11.125  1.00  0.00     0.157 HD
HETATM   36  H49 UNK     0      -1.014   4.197  11.474  1.00  0.00     0.157 HD
ENDBRANCH  23  34
ENDBRANCH  20  23
ENDBRANCH  15  17
ENDBRANCH  14  15
ENDBRANCH  10  14
ENDBRANCH   3   4
BRANCH   2  37
HETATM   37  C24 UNK     0      -3.999   5.681  -3.857  1.00  0.00     0.144 C 
BRANCH  37  38
HETATM   38  C27 UNK     0      -5.165   4.664  -4.214  1.00  0.00     0.131 C 
BRANCH  38  39
HETATM   39  C37 UNK     0      -5.531   3.821  -2.956  1.00  0.00     0.260 C 
HETATM   40  O3  UNK     0      -5.170   2.628  -2.879  1.00  0.00    -0.265 OA
BRANCH  39  41
HETATM   41  O2  UNK     0      -6.277   4.400  -1.917  1.00  0.00    -0.322 OA
BRANCH  41  42
HETATM   42  C39 UNK     0      -6.550   5.839  -1.933  1.00  0.00     0.174 C 
HETATM   43  C41 UNK     0      -6.990   6.309  -0.490  1.00  0.00     0.034 C 
ENDBRANCH  41  42
ENDBRANCH  39  41
ENDBRANCH  38  39
ENDBRANCH  37  38
ENDBRANCH   2  37
BRANCH   2  44
HETATM   44  C22 UNK     0      -1.984   4.302  -4.731  1.00  0.00     0.132 A 
HETATM   45  N10 UNK     0      -2.084   2.894  -4.948  1.00  0.00    -0.243 NA
HETATM   46  C31 UNK     0      -1.391   2.271  -6.033  1.00  0.00     0.119 A 
HETATM   47  C36 UNK     0      -0.587   3.062  -6.909  1.00  0.00     0.019 A 
HETATM   48  C32 UNK     0      -0.483   4.471  -6.693  1.00  0.00     0.005 A 
HETATM   49  C26 UNK     0      -1.177   5.093  -5.609  1.00  0.00     0.051 A 
ENDBRANCH   2  44
TORSDOF 18
ENDMDL
MODEL 4
REMARK VINA RESULT:    -7.920      5.777     10.989
REMARK INTER + INTRA:         -17.445
REMARK INTER:                 -14.606
REMARK INTRA:                  -2.839
REMARK UNBOUND:                -1.423
REMARK  18 active torsions:
REMARK  status: ('A' for Active; 'I' for Inactive)
REMARK    1  A    between atoms: O2_2  and  C37_37 
REMARK    2  A    between atoms: O2_2  and  C39_39 
REMARK    3  A    between atoms: O4_4  and  C38_38 
REMARK    4  A    between atoms: O4_4  and  C40_40 
REMARK    5  A    between atoms: N8_8  and  C24_24 
REMARK    6  A    between atoms: N8_8  and  C22_22 
REMARK       I    between atoms: N8_8  and  C19_19 
REMARK    7  A    between atoms: N9_9  and  C21_21 
REMARK    8  A    between atoms: N9_9  and  C25_25 
REMARK       I    between atoms: N11_11  and  C38_38 
REMARK    9  A    between atoms: N12_12  and  C35_35 
REMARK   10  A    between atoms: C15_15  and  C21_21 
REMARK   11  A    between atoms: C16_16  and  C19_19 
REMARK   12  A    between atoms: C24_24  and  C27_27 
REMARK   13  A    between atoms: C27_27  and  C37_37 
REMARK   14  A    between atoms: C30_30  and  C35_35 
REMARK   15  A    between atoms: C40_40  and  C42_42 
REMARK   16  A    between atoms: C42_42  and  C43_43 
REMARK   17  A    between atoms: C43_43  and  C44_44 
REMARK   18  A    between atoms: C44_44  and  C45_45 
ROOT
HETATM    1  O1  UNK     0      -6.780   7.427   7.272  1.00  0.00    -0.267 OA
HETATM    2  N8  UNK     0      -7.073   5.703   5.761  1.00  0.00    -0.298 N 
HETATM    3  C19 UNK     0      -6.376   6.864   6.230  1.00  0.00     0.259 C 
ENDROOT
BRANCH   3   4
HETATM    4  C16 UNK     0      -5.153   7.434   5.518  1.00  0.00     0.035 A 
HETATM    5  C20 UNK     0      -5.125   8.814   5.100  1.00  0.00     0.019 A 
HETATM    6  C18 UNK     0      -3.985   9.364   4.424  1.00  0.00     0.033 A 
HETATM    7  C13 UNK     0      -2.889   8.486   4.188  1.00  0.00     0.064 A 
HETATM    8  N6  UNK     0      -1.684   8.724   3.572  1.00  0.00    -0.336 N 
HETATM    9  C14 UNK     0      -2.907   7.133   4.589  1.00  0.00     0.086 A 
HETATM   10  C15 UNK     0      -0.968   7.533   3.598  1.00  0.00     0.124 A 
HETATM   11  C23 UNK     0      -1.222  10.045   2.979  1.00  0.00     0.158 C 
HETATM   12  N7  UNK     0      -1.714   6.531   4.225  1.00  0.00    -0.231 NA
HETATM   13  C17 UNK     0      -4.033   6.572   5.263  1.00  0.00     0.051 A 
BRANCH  10  14
HETATM   14  C21 UNK     0       0.465   7.368   3.007  1.00  0.00     0.198 C 
BRANCH  14  15
HETATM   15  N9  UNK     0       0.913   5.920   2.896  1.00  0.00    -0.383 N 
HETATM   16  H47 UNK     0       1.383   5.432   3.725  1.00  0.00     0.160 HD
BRANCH  15  17
HETATM   17  C25 UNK     0       0.693   5.203   1.644  1.00  0.00     0.028 A 
HETATM   18  C28 UNK     0       1.561   4.129   1.266  1.00  0.00     0.030 A 
HETATM   19  C33 UNK     0       1.333   3.432   0.038  1.00  0.00     0.017 A 
HETATM   20  C30 UNK     0       0.244   3.809  -0.810  1.00  0.00     0.010 A 
HETATM   21  C34 UNK     0      -0.622   4.880  -0.436  1.00  0.00     0.017 A 
HETATM   22  C29 UNK     0      -0.396   5.574   0.791  1.00  0.00     0.030 A 
BRANCH  20  23
HETATM   23  C35 UNK     0       0.000   3.073  -2.105  1.00  0.00     0.137 C 
HETATM   24  N11 UNK     0      -1.253   2.874  -2.534  1.00  0.00    -0.170 NA
HETATM   25  C38 UNK     0      -1.480   2.142  -3.836  1.00  0.00     0.388 C 
HETATM   26  O5  UNK     0      -0.525   1.576  -4.408  1.00  0.00    -0.236 OA
BRANCH  25  27
HETATM   27  O4  UNK     0      -2.760   2.105  -4.406  1.00  0.00    -0.302 OA
BRANCH  27  28
HETATM   28  C40 UNK     0      -3.619   3.284  -4.287  1.00  0.00     0.180 C 
BRANCH  28  29
HETATM   29  C42 UNK     0      -4.534   3.146  -3.012  1.00  0.00     0.027 C 
BRANCH  29  30
HETATM   30  C43 UNK     0      -4.377   4.455  -2.148  1.00  0.00     0.002 C 
BRANCH  30  31
HETATM   31  C44 UNK     0      -5.669   4.675  -1.274  1.00  0.00    -0.000 C 
BRANCH  31  32
HETATM   32  C45 UNK     0      -6.475   5.901  -1.857  1.00  0.00    -0.005 C 
HETATM   33  C46 UNK     0      -5.635   6.583  -3.007  1.00  0.00     0.005 C 
ENDBRANCH  31  32
ENDBRANCH  30  31
ENDBRANCH  29  30
ENDBRANCH  28  29
ENDBRANCH  27  28
ENDBRANCH  25  27
BRANCH  23  34
HETATM   34  N12 UNK     0       1.101   2.597  -2.875  1.00  0.00    -0.383 N 
HETATM   35  H48 UNK     0       0.948   2.273  -3.883  1.00  0.00     0.157 HD
HETATM   36  H49 UNK     0       2.080   2.564  -2.445  1.00  0.00     0.157 HD
ENDBRANCH  23  34
ENDBRANCH  20  23
ENDBRANCH  15  17
ENDBRANCH  14  15
ENDBRANCH  10  14
ENDBRANCH   3   4
BRANCH   2  37
HETATM   37  C24 UNK     0      -6.618   4.891   4.553  1.00  0.00     0.144 C 
BRANCH  37  38
HETATM   38  C27 UNK     0      -7.697   5.012   3.394  1.00  0.00     0.131 C 
BRANCH  38  39
HETATM   39  C37 UNK     0      -7.094   5.804   2.196  1.00  0.00     0.260 C 
HETATM   40  O3  UNK     0      -7.811   6.088   1.213  1.00  0.00    -0.265 OA
BRANCH  39  41
HETATM   41  O2  UNK     0      -5.744   6.186   2.216  1.00  0.00    -0.322 OA
BRANCH  41  42
HETATM   42  C39 UNK     0      -5.329   7.420   1.544  1.00  0.00     0.174 C 
HETATM   43  C41 UNK     0      -3.926   7.198   0.852  1.00  0.00     0.034 C 
ENDBRANCH  41  42
ENDBRANCH  39  41
ENDBRANCH  38  39
ENDBRANCH  37  38
ENDBRANCH   2  37
BRANCH   2  44
HETATM   44  C22 UNK     0      -8.181   5.243   6.593  1.00  0.00     0.132 A 
HETATM   45  N10 UNK     0      -7.978   4.151   7.491  1.00  0.00    -0.243 NA
HETATM   46  C31 UNK     0      -9.043   3.680   8.320  1.00  0.00     0.119 A 
HETATM   47  C36 UNK     0     -10.326   4.304   8.252  1.00  0.00     0.019 A 
HETATM   48  C32 UNK     0     -10.533   5.395   7.352  1.00  0.00     0.005 A 
HETATM   49  C26 UNK     0      -9.467   5.867   6.524  1.00  0.00     0.051 A 
ENDBRANCH   2  44
TORSDOF 18
ENDMDL
MODEL 5
REMARK VINA RESULT:    -7.915      5.425      6.979
REMARK INTER + INTRA:         -17.435
REMARK INTER:                 -14.375
REMARK INTRA:                  -3.059
REMARK UNBOUND:                -1.423
REMARK  18 active torsions:
REMARK  status: ('A' for Active; 'I' for Inactive)
REMARK    1  A    between atoms: O2_2  and  C37_37 
REMARK    2  A    between atoms: O2_2  and  C39_39 
REMARK    3  A    between atoms: O4_4  and  C38_38 
REMARK    4  A    between atoms: O4_4  and  C40_40 
REMARK    5  A    between atoms: N8_8  and  C24_24 
REMARK    6  A    between atoms: N8_8  and  C22_22 
REMARK       I    between atoms: N8_8  and  C19_19 
REMARK    7  A    between atoms: N9_9  and  C21_21 
REMARK    8  A    between atoms: N9_9  and  C25_25 
REMARK       I    between atoms: N11_11  and  C38_38 
REMARK    9  A    between atoms: N12_12  and  C35_35 
REMARK   10  A    between atoms: C15_15  and  C21_21 
REMARK   11  A    between atoms: C16_16  and  C19_19 
REMARK   12  A    between atoms: C24_24  and  C27_27 
REMARK   13  A    between atoms: C27_27  and  C37_37 
REMARK   14  A    between atoms: C30_30  and  C35_35 
REMARK   15  A    between atoms: C40_40  and  C42_42 
REMARK   16  A    between atoms: C42_42  and  C43_43 
REMARK   17  A    between atoms: C43_43  and  C44_44 
REMARK   18  A    between atoms: C44_44  and  C45_45 
ROOT
HETATM    1  O1  UNK     0      -4.967   7.337  -3.863  1.00  0.00    -0.267 OA
HETATM    2  N8  UNK     0      -4.826   5.046  -4.129  1.00  0.00    -0.298 N 
HETATM    3  C19 UNK     0      -5.013   6.213  -3.318  1.00  0.00     0.259 C 
ENDROOT
BRANCH   3   4
HETATM    4  C16 UNK     0      -5.281   6.139  -1.817  1.00  0.00     0.035 A 
HETATM    5  C20 UNK     0      -6.626   6.228  -1.308  1.00  0.00     0.019 A 
HETATM    6  C18 UNK     0      -6.895   6.166   0.100  1.00  0.00     0.033 A 
HETATM    7  C13 UNK     0      -5.774   6.014   0.964  1.00  0.00     0.064 A 
HETATM    8  N6  UNK     0      -5.721   5.929   2.336  1.00  0.00    -0.336 N 
HETATM    9  C14 UNK     0      -4.452   5.931   0.478  1.00  0.00     0.086 A 
HETATM   10  C15 UNK     0      -4.383   5.790   2.686  1.00  0.00     0.124 A 
HETATM   11  C23 UNK     0      -6.906   5.974   3.286  1.00  0.00     0.158 C 
HETATM   12  N7  UNK     0      -3.579   5.791   1.543  1.00  0.00    -0.231 NA
HETATM   13  C17 UNK     0      -4.169   5.989  -0.920  1.00  0.00     0.051 A 
BRANCH  10  14
HETATM   14  C21 UNK     0      -3.880   5.650   4.155  1.00  0.00     0.198 C 
BRANCH  14  15
HETATM   15  N9  UNK     0      -2.370   5.751   4.292  1.00  0.00    -0.383 N 
HETATM   16  H47 UNK     0      -1.784   4.879   4.495  1.00  0.00     0.160 HD
BRANCH  15  17
HETATM   17  C25 UNK     0      -1.730   7.054   4.143  1.00  0.00     0.028 A 
HETATM   18  C28 UNK     0      -2.067   8.128   5.027  1.00  0.00     0.030 A 
HETATM   19  C33 UNK     0      -1.430   9.400   4.873  1.00  0.00     0.017 A 
HETATM   20  C30 UNK     0      -0.462   9.598   3.837  1.00  0.00     0.010 A 
HETATM   21  C34 UNK     0      -0.125   8.528   2.953  1.00  0.00     0.017 A 
HETATM   22  C29 UNK     0      -0.759   7.259   3.109  1.00  0.00     0.030 A 
BRANCH  20  23
HETATM   23  C35 UNK     0       0.213  10.937   3.674  1.00  0.00     0.137 C 
HETATM   24  N11 UNK     0      -0.525  12.038   3.481  1.00  0.00    -0.170 NA
HETATM   25  C38 UNK     0       0.166  13.373   3.326  1.00  0.00     0.388 C 
HETATM   26  O5  UNK     0       1.408  13.421   3.198  1.00  0.00    -0.236 OA
BRANCH  25  27
HETATM   27  O4  UNK     0      -0.583  14.557   3.334  1.00  0.00    -0.302 OA
BRANCH  27  28
HETATM   28  C40 UNK     0      -2.016  14.481   3.619  1.00  0.00     0.180 C 
BRANCH  28  29
HETATM   29  C42 UNK     0      -2.820  14.358   2.270  1.00  0.00     0.027 C 
BRANCH  29  30
HETATM   30  C43 UNK     0      -3.978  13.310   2.480  1.00  0.00     0.002 C 
BRANCH  30  31
HETATM   31  C44 UNK     0      -3.630  11.971   1.725  1.00  0.00    -0.000 C 
BRANCH  31  32
HETATM   32  C45 UNK     0      -4.087  10.751   2.616  1.00  0.00    -0.005 C 
HETATM   33  C46 UNK     0      -3.781   9.401   1.856  1.00  0.00     0.005 C 
ENDBRANCH  31  32
ENDBRANCH  30  31
ENDBRANCH  29  30
ENDBRANCH  28  29
ENDBRANCH  27  28
ENDBRANCH  25  27
BRANCH  23  34
HETATM   34  N12 UNK     0       1.634  11.032   3.731  1.00  0.00    -0.383 N 
HETATM   35  H48 UNK     0       2.196  10.314   4.291  1.00  0.00     0.157 HD
HETATM   36  H49 UNK     0       2.139  11.821   3.213  1.00  0.00     0.157 HD
ENDBRANCH  23  34
ENDBRANCH  20  23
ENDBRANCH  15  17
ENDBRANCH  14  15
ENDBRANCH  10  14
ENDBRANCH   3   4
BRANCH   2  37
HETATM   37  C24 UNK     0      -4.947   3.626  -3.585  1.00  0.00     0.144 C 
BRANCH  37  38
HETATM   38  C27 UNK     0      -3.499   2.990  -3.436  1.00  0.00     0.131 C 
BRANCH  38  39
HETATM   39  C37 UNK     0      -3.206   2.698  -1.934  1.00  0.00     0.260 C 
HETATM   40  O3  UNK     0      -4.084   2.170  -1.218  1.00  0.00    -0.265 OA
BRANCH  39  41
HETATM   41  O2  UNK     0      -1.961   3.040  -1.382  1.00  0.00    -0.322 OA
BRANCH  41  42
HETATM   42  C39 UNK     0      -0.733   2.757  -2.130  1.00  0.00     0.174 C 
HETATM   43  C41 UNK     0       0.509   2.844  -1.157  1.00  0.00     0.034 C 
ENDBRANCH  41  42
ENDBRANCH  39  41
ENDBRANCH  38  39
ENDBRANCH  37  38
ENDBRANCH   2  37
BRANCH   2  44
HETATM   44  C22 UNK     0      -4.649   5.283  -5.558  1.00  0.00     0.132 A 
HETATM   45  N10 UNK     0      -5.793   5.295  -6.414  1.00  0.00    -0.243 NA
HETATM   46  C31 UNK     0      -5.652   5.527  -7.818  1.00  0.00     0.119 A 
HETATM   47  C36 UNK     0      -4.355   5.748  -8.374  1.00  0.00     0.019 A 
HETATM   48  C32 UNK     0      -3.209   5.734  -7.521  1.00  0.00     0.005 A 
HETATM   49  C26 UNK     0      -3.351   5.503  -6.117  1.00  0.00     0.051 A 
ENDBRANCH   2  44
TORSDOF 18
ENDMDL
MODEL 6
REMARK VINA RESULT:    -7.904      5.296      7.540
REMARK INTER + INTRA:         -17.414
REMARK INTER:                 -13.615
REMARK INTRA:                  -3.799
REMARK UNBOUND:                -1.423
REMARK  18 active torsions:
REMARK  status: ('A' for Active; 'I' for Inactive)
REMARK    1  A    between atoms: O2_2  and  C37_37 
REMARK    2  A    between atoms: O2_2  and  C39_39 
REMARK    3  A    between atoms: O4_4  and  C38_38 
REMARK    4  A    between atoms: O4_4  and  C40_40 
REMARK    5  A    between atoms: N8_8  and  C24_24 
REMARK    6  A    between atoms: N8_8  and  C22_22 
REMARK       I    between atoms: N8_8  and  C19_19 
REMARK    7  A    between atoms: N9_9  and  C21_21 
REMARK    8  A    between atoms: N9_9  and  C25_25 
REMARK       I    between atoms: N11_11  and  C38_38 
REMARK    9  A    between atoms: N12_12  and  C35_35 
REMARK   10  A    between atoms: C15_15  and  C21_21 
REMARK   11  A    between atoms: C16_16  and  C19_19 
REMARK   12  A    between atoms: C24_24  and  C27_27 
REMARK   13  A    between atoms: C27_27  and  C37_37 
REMARK   14  A    between atoms: C30_30  and  C35_35 
REMARK   15  A    between atoms: C40_40  and  C42_42 
REMARK   16  A    between atoms: C42_42  and  C43_43 
REMARK   17  A    between atoms: C43_43  and  C44_44 
REMARK   18  A    between atoms: C44_44  and  C45_45 
ROOT
HETATM    1  O1  UNK     0      -6.184   3.843  -1.985  1.00  0.00    -0.267 OA
HETATM    2  N8  UNK     0      -4.564   5.205  -2.914  1.00  0.00    -0.298 N 
HETATM    3  C19 UNK     0      -5.365   4.772  -1.807  1.00  0.00     0.259 C 
ENDROOT
BRANCH   3   4
HETATM    4  C16 UNK     0      -5.251   5.388  -0.416  1.00  0.00     0.035 A 
HETATM    5  C20 UNK     0      -5.824   6.681  -0.138  1.00  0.00     0.019 A 
HETATM    6  C18 UNK     0      -5.720   7.278   1.163  1.00  0.00     0.033 A 
HETATM    7  C13 UNK     0      -5.027   6.534   2.160  1.00  0.00     0.064 A 
HETATM    8  N6  UNK     0      -4.770   6.845   3.474  1.00  0.00    -0.336 N 
HETATM    9  C14 UNK     0      -4.458   5.270   1.898  1.00  0.00     0.086 A 
HETATM   10  C15 UNK     0      -4.056   5.782   4.014  1.00  0.00     0.124 A 
HETATM   11  C23 UNK     0      -5.194   8.113   4.198  1.00  0.00     0.158 C 
HETATM   12  N7  UNK     0      -3.850   4.794   3.048  1.00  0.00    -0.231 NA
HETATM   13  C17 UNK     0      -4.555   4.663   0.610  1.00  0.00     0.051 A 
BRANCH  10  14
HETATM   14  C21 UNK     0      -3.569   5.725   5.494  1.00  0.00     0.198 C 
BRANCH  14  15
HETATM   15  N9  UNK     0      -2.071   5.933   5.649  1.00  0.00    -0.383 N 
HETATM   16  H47 UNK     0      -1.488   5.259   6.241  1.00  0.00     0.160 HD
BRANCH  15  17
HETATM   17  C25 UNK     0      -1.439   7.065   4.978  1.00  0.00     0.028 A 
HETATM   18  C28 UNK     0      -1.686   8.401   5.431  1.00  0.00     0.030 A 
HETATM   19  C33 UNK     0      -1.058   9.502   4.768  1.00  0.00     0.017 A 
HETATM   20  C30 UNK     0      -0.189   9.268   3.655  1.00  0.00     0.010 A 
HETATM   21  C34 UNK     0       0.059   7.938   3.201  1.00  0.00     0.017 A 
HETATM   22  C29 UNK     0      -0.567   6.839   3.864  1.00  0.00     0.030 A 
BRANCH  20  23
HETATM   23  C35 UNK     0       0.477  10.428   2.955  1.00  0.00     0.137 C 
HETATM   24  N11 UNK     0       0.161  10.712   1.685  1.00  0.00    -0.170 NA
HETATM   25  C38 UNK     0       0.832  11.880   1.001  1.00  0.00     0.388 C 
HETATM   26  O5  UNK     0       1.795  12.456   1.550  1.00  0.00    -0.236 OA
BRANCH  25  27
HETATM   27  O4  UNK     0       0.369  12.323  -0.246  1.00  0.00    -0.302 OA
BRANCH  27  28
HETATM   28  C40 UNK     0      -0.991  12.852  -0.345  1.00  0.00     0.180 C 
BRANCH  28  29
HETATM   29  C42 UNK     0      -1.935  11.770  -0.993  1.00  0.00     0.027 C 
BRANCH  29  30
HETATM   30  C43 UNK     0      -1.078  10.904  -1.993  1.00  0.00     0.002 C 
BRANCH  30  31
HETATM   31  C44 UNK     0      -1.630   9.428  -2.027  1.00  0.00    -0.000 C 
BRANCH  31  32
HETATM   32  C45 UNK     0      -1.015   8.627  -0.814  1.00  0.00    -0.005 C 
HETATM   33  C46 UNK     0      -2.175   8.159   0.149  1.00  0.00     0.005 C 
ENDBRANCH  31  32
ENDBRANCH  30  31
ENDBRANCH  29  30
ENDBRANCH  28  29
ENDBRANCH  27  28
ENDBRANCH  25  27
BRANCH  23  34
HETATM   34  N12 UNK     0       1.437  11.223   3.646  1.00  0.00    -0.383 N 
HETATM   35  H48 UNK     0       1.122  12.087   4.192  1.00  0.00     0.157 HD
HETATM   36  H49 UNK     0       2.473  10.956   3.618  1.00  0.00     0.157 HD
ENDBRANCH  23  34
ENDBRANCH  20  23
ENDBRANCH  15  17
ENDBRANCH  14  15
ENDBRANCH  10  14
ENDBRANCH   3   4
BRANCH   2  37
HETATM   37  C24 UNK     0      -3.477   6.267  -2.789  1.00  0.00     0.144 C 
BRANCH  37  38
HETATM   38  C27 UNK     0      -2.064   5.563  -2.622  1.00  0.00     0.131 C 
BRANCH  38  39
HETATM   39  C37 UNK     0      -1.236   5.729  -3.931  1.00  0.00     0.260 C 
HETATM   40  O3  UNK     0      -0.507   6.731  -4.086  1.00  0.00    -0.265 OA
BRANCH  39  41
HETATM   41  O2  UNK     0      -1.320   4.758  -4.942  1.00  0.00    -0.322 OA
BRANCH  41  42
HETATM   42  C39 UNK     0      -1.724   5.150  -6.295  1.00  0.00     0.174 C 
HETATM   43  C41 UNK     0      -0.587   4.757  -7.319  1.00  0.00     0.034 C 
ENDBRANCH  41  42
ENDBRANCH  39  41
ENDBRANCH  38  39
ENDBRANCH  37  38
ENDBRANCH   2  37
BRANCH   2  44
HETATM   44  C22 UNK     0      -4.744   4.467  -4.160  1.00  0.00     0.132 A 
HETATM   45  N10 UNK     0      -5.453   5.076  -5.241  1.00  0.00    -0.243 NA
HETATM   46  C31 UNK     0      -5.642   4.379  -6.475  1.00  0.00     0.119 A 
HETATM   47  C36 UNK     0      -5.119   3.058  -6.632  1.00  0.00     0.019 A 
HETATM   48  C32 UNK     0      -4.412   2.446  -5.552  1.00  0.00     0.005 A 
HETATM   49  C26 UNK     0      -4.222   3.144  -4.319  1.00  0.00     0.051 A 
ENDBRANCH   2  44
TORSDOF 18
ENDMDL
MODEL 7
REMARK VINA RESULT:    -7.879      5.474      7.045
REMARK INTER + INTRA:         -17.363
REMARK INTER:                 -15.374
REMARK INTRA:                  -1.989
REMARK UNBOUND:                -1.423
REMARK  18 active torsions:
REMARK  status: ('A' for Active; 'I' for Inactive)
REMARK    1  A    between atoms: O2_2  and  C37_37 
REMARK    2  A    between atoms: O2_2  and  C39_39 
REMARK    3  A    between atoms: O4_4  and  C38_38 
REMARK    4  A    between atoms: O4_4  and  C40_40 
REMARK    5  A    between atoms: N8_8  and  C24_24 
REMARK    6  A    between atoms: N8_8  and  C22_22 
REMARK       I    between atoms: N8_8  and  C19_19 
REMARK    7  A    between atoms: N9_9  and  C21_21 
REMARK    8  A    between atoms: N9_9  and  C25_25 
REMARK       I    between atoms: N11_11  and  C38_38 
REMARK    9  A    between atoms: N12_12  and  C35_35 
REMARK   10  A    between atoms: C15_15  and  C21_21 
REMARK   11  A    between atoms: C16_16  and  C19_19 
REMARK   12  A    between atoms: C24_24  and  C27_27 
REMARK   13  A    between atoms: C27_27  and  C37_37 
REMARK   14  A    between atoms: C30_30  and  C35_35 
REMARK   15  A    between atoms: C40_40  and  C42_42 
REMARK   16  A    between atoms: C42_42  and  C43_43 
REMARK   17  A    between atoms: C43_43  and  C44_44 
REMARK   18  A    between atoms: C44_44  and  C45_45 
ROOT
HETATM    1  O1  UNK     0      -5.477   7.318  -4.105  1.00  0.00    -0.267 OA
HETATM    2  N8  UNK     0      -4.550   5.202  -4.153  1.00  0.00    -0.298 N 
HETATM    3  C19 UNK     0      -5.083   6.330  -3.448  1.00  0.00     0.259 C 
ENDROOT
BRANCH   3   4
HETATM    4  C16 UNK     0      -5.204   6.369  -1.927  1.00  0.00     0.035 A 
HETATM    5  C20 UNK     0      -6.451   6.042  -1.282  1.00  0.00     0.019 A 
HETATM    6  C18 UNK     0      -6.583   6.080   0.147  1.00  0.00     0.033 A 
HETATM    7  C13 UNK     0      -5.428   6.455   0.891  1.00  0.00     0.064 A 
HETATM    8  N6  UNK     0      -5.255   6.580   2.250  1.00  0.00    -0.336 N 
HETATM    9  C14 UNK     0      -4.204   6.781   0.270  1.00  0.00     0.086 A 
HETATM   10  C15 UNK     0      -3.939   6.974   2.460  1.00  0.00     0.124 A 
HETATM   11  C23 UNK     0      -6.308   6.328   3.317  1.00  0.00     0.158 C 
HETATM   12  N7  UNK     0      -3.271   7.107   1.241  1.00  0.00    -0.231 NA
HETATM   13  C17 UNK     0      -4.057   6.747  -1.149  1.00  0.00     0.051 A 
BRANCH  10  14
HETATM   14  C21 UNK     0      -3.323   7.222   3.870  1.00  0.00     0.198 C 
BRANCH  14  15
HETATM   15  N9  UNK     0      -1.809   7.091   3.902  1.00  0.00    -0.383 N 
HETATM   16  H47 UNK     0      -1.349   6.126   3.937  1.00  0.00     0.160 HD
BRANCH  15  17
HETATM   17  C25 UNK     0      -0.992   8.300   3.886  1.00  0.00     0.028 A 
HETATM   18  C28 UNK     0      -1.367   9.435   4.674  1.00  0.00     0.030 A 
HETATM   19  C33 UNK     0      -0.556  10.613   4.651  1.00  0.00     0.017 A 
HETATM   20  C30 UNK     0       0.624  10.658   3.843  1.00  0.00     0.010 A 
HETATM   21  C34 UNK     0       1.000   9.528   3.056  1.00  0.00     0.017 A 
HETATM   22  C29 UNK     0       0.191   8.351   3.080  1.00  0.00     0.030 A 
BRANCH  20  23
HETATM   23  C35 UNK     0       1.483  11.899   3.820  1.00  0.00     0.137 C 
HETATM   24  N11 UNK     0       2.356  12.087   2.822  1.00  0.00    -0.170 NA
HETATM   25  C38 UNK     0       3.203  13.338   2.810  1.00  0.00     0.388 C 
HETATM   26  O5  UNK     0       3.219  14.091   3.807  1.00  0.00    -0.236 OA
BRANCH  25  27
HETATM   27  O4  UNK     0       3.966  13.658   1.679  1.00  0.00    -0.302 OA
BRANCH  27  28
HETATM   28  C40 UNK     0       4.625  12.577   0.945  1.00  0.00     0.180 C 
BRANCH  28  29
HETATM   29  C42 UNK     0       6.126  12.964   0.664  1.00  0.00     0.027 C 
BRANCH  29  30
HETATM   30  C43 UNK     0       7.005  11.663   0.803  1.00  0.00     0.002 C 
BRANCH  30  31
HETATM   31  C44 UNK     0       7.805  11.415  -0.531  1.00  0.00    -0.000 C 
BRANCH  31  32
HETATM   32  C45 UNK     0       6.803  10.901  -1.637  1.00  0.00    -0.005 C 
HETATM   33  C46 UNK     0       6.326   9.439  -1.277  1.00  0.00     0.005 C 
ENDBRANCH  31  32
ENDBRANCH  30  31
ENDBRANCH  29  30
ENDBRANCH  28  29
ENDBRANCH  27  28
ENDBRANCH  25  27
BRANCH  23  34
HETATM   34  N12 UNK     0       1.361  12.871   4.855  1.00  0.00    -0.383 N 
HETATM   35  H48 UNK     0       1.247  12.558   5.872  1.00  0.00     0.157 HD
HETATM   36  H49 UNK     0       1.383  13.914   4.615  1.00  0.00     0.157 HD
ENDBRANCH  23  34
ENDBRANCH  20  23
ENDBRANCH  15  17
ENDBRANCH  14  15
ENDBRANCH  10  14
ENDBRANCH   3   4
BRANCH   2  37
HETATM   37  C24 UNK     0      -4.122   3.913  -3.458  1.00  0.00     0.144 C 
BRANCH  37  38
HETATM   38  C27 UNK     0      -2.555   3.946  -3.197  1.00  0.00     0.131 C 
BRANCH  38  39
HETATM   39  C37 UNK     0      -2.194   2.960  -2.047  1.00  0.00     0.260 C 
HETATM   40  O3  UNK     0      -2.837   1.898  -1.911  1.00  0.00    -0.265 OA
BRANCH  39  41
HETATM   41  O2  UNK     0      -1.154   3.272  -1.157  1.00  0.00    -0.322 OA
BRANCH  41  42
HETATM   42  C39 UNK     0      -0.999   4.646  -0.672  1.00  0.00     0.174 C 
HETATM   43  C41 UNK     0       0.291   4.744   0.234  1.00  0.00     0.034 C 
ENDBRANCH  41  42
ENDBRANCH  39  41
ENDBRANCH  38  39
ENDBRANCH  37  38
ENDBRANCH   2  37
BRANCH   2  44
HETATM   44  C22 UNK     0      -4.568   5.292  -5.609  1.00  0.00     0.132 A 
HETATM   45  N10 UNK     0      -5.702   4.804  -6.329  1.00  0.00    -0.243 NA
HETATM   46  C31 UNK     0      -5.750   4.881  -7.756  1.00  0.00     0.119 A 
HETATM   47  C36 UNK     0      -4.653   5.450  -8.473  1.00  0.00     0.019 A 
HETATM   48  C32 UNK     0      -3.516   5.936  -7.756  1.00  0.00     0.005 A 
HETATM   49  C26 UNK     0      -3.470   5.860  -6.329  1.00  0.00     0.051 A 
ENDBRANCH   2  44
TORSDOF 18
ENDMDL
MODEL 8
REMARK VINA RESULT:    -7.877      5.440      7.247
REMARK INTER + INTRA:         -17.358
REMARK INTER:                 -13.910
REMARK INTRA:                  -3.448
REMARK UNBOUND:                -1.423
REMARK  18 active torsions:
REMARK  status: ('A' for Active; 'I' for Inactive)
REMARK    1  A    between atoms: O2_2  and  C37_37 
REMARK    2  A    between atoms: O2_2  and  C39_39 
REMARK    3  A    between atoms: O4_4  and  C38_38 
REMARK    4  A    between atoms: O4_4  and  C40_40 
REMARK    5  A    between atoms: N8_8  and  C24_24 
REMARK    6  A    between atoms: N8_8  and  C22_22 
REMARK       I    between atoms: N8_8  and  C19_19 
REMARK    7  A    between atoms: N9_9  and  C21_21 
REMARK    8  A    between atoms: N9_9  and  C25_25 
REMARK       I    between atoms: N11_11  and  C38_38 
REMARK    9  A    between atoms: N12_12  and  C35_35 
REMARK   10  A    between atoms: C15_15  and  C21_21 
REMARK   11  A    between atoms: C16_16  and  C19_19 
REMARK   12  A    between atoms: C24_24  and  C27_27 
REMARK   13  A    between atoms: C27_27  and  C37_37 
REMARK   14  A    between atoms: C30_30  and  C35_35 
REMARK   15  A    between atoms: C40_40  and  C42_42 
REMARK   16  A    between atoms: C42_42  and  C43_43 
REMARK   17  A    between atoms: C43_43  and  C44_44 
REMARK   18  A    between atoms: C44_44  and  C45_45 
ROOT
HETATM    1  O1  UNK     0      -4.957   7.450  -3.597  1.00  0.00    -0.267 OA
HETATM    2  N8  UNK     0      -4.912   5.161  -3.912  1.00  0.00    -0.298 N 
HETATM    3  C19 UNK     0      -5.048   6.317  -3.075  1.00  0.00     0.259 C 
ENDROOT
BRANCH   3   4
HETATM    4  C16 UNK     0      -5.315   6.222  -1.576  1.00  0.00     0.035 A 
HETATM    5  C20 UNK     0      -6.665   6.190  -1.072  1.00  0.00     0.019 A 
HETATM    6  C18 UNK     0      -6.933   6.107   0.336  1.00  0.00     0.033 A 
HETATM    7  C13 UNK     0      -5.806   6.059   1.205  1.00  0.00     0.064 A 
HETATM    8  N6  UNK     0      -5.751   5.982   2.576  1.00  0.00    -0.336 N 
HETATM    9  C14 UNK     0      -4.480   6.095   0.723  1.00  0.00     0.086 A 
HETATM   10  C15 UNK     0      -4.408   5.966   2.932  1.00  0.00     0.124 A 
HETATM   11  C23 UNK     0      -6.940   5.920   3.522  1.00  0.00     0.158 C 
HETATM   12  N7  UNK     0      -3.602   6.038   1.793  1.00  0.00    -0.231 NA
HETATM   13  C17 UNK     0      -4.198   6.176  -0.673  1.00  0.00     0.051 A 
BRANCH  10  14
HETATM   14  C21 UNK     0      -3.901   5.875   4.403  1.00  0.00     0.198 C 
BRANCH  14  15
HETATM   15  N9  UNK     0      -2.385   5.876   4.524  1.00  0.00    -0.383 N 
HETATM   16  H47 UNK     0      -1.866   4.991   4.830  1.00  0.00     0.160 HD
BRANCH  15  17
HETATM   17  C25 UNK     0      -1.650   7.098   4.218  1.00  0.00     0.028 A 
HETATM   18  C28 UNK     0      -0.530   7.061   3.326  1.00  0.00     0.030 A 
HETATM   19  C33 UNK     0       0.181   8.267   3.031  1.00  0.00     0.017 A 
HETATM   20  C30 UNK     0      -0.224   9.503   3.626  1.00  0.00     0.010 A 
HETATM   21  C34 UNK     0      -1.339   9.543   4.517  1.00  0.00     0.017 A 
HETATM   22  C29 UNK     0      -2.050   8.339   4.810  1.00  0.00     0.030 A 
BRANCH  20  23
HETATM   23  C35 UNK     0       0.523  10.777   3.315  1.00  0.00     0.137 C 
HETATM   24  N11 UNK     0       0.988  10.993   2.077  1.00  0.00    -0.170 NA
HETATM   25  C38 UNK     0       1.727  12.277   1.780  1.00  0.00     0.388 C 
HETATM   26  O5  UNK     0       2.056  13.038   2.714  1.00  0.00    -0.236 OA
BRANCH  25  27
HETATM   27  O4  UNK     0       2.038  12.617   0.457  1.00  0.00    -0.302 OA
BRANCH  27  28
HETATM   28  C40 UNK     0       1.807  11.629  -0.598  1.00  0.00     0.180 C 
BRANCH  28  29
HETATM   29  C42 UNK     0       0.506  12.006  -1.402  1.00  0.00     0.027 C 
BRANCH  29  30
HETATM   30  C43 UNK     0      -0.460  10.762  -1.389  1.00  0.00     0.002 C 
BRANCH  30  31
HETATM   31  C44 UNK     0      -1.623  11.000  -0.352  1.00  0.00    -0.000 C 
BRANCH  31  32
HETATM   32  C45 UNK     0      -1.990   9.624   0.327  1.00  0.00    -0.005 C 
HETATM   33  C46 UNK     0      -1.236   8.453  -0.418  1.00  0.00     0.005 C 
ENDBRANCH  31  32
ENDBRANCH  30  31
ENDBRANCH  29  30
ENDBRANCH  28  29
ENDBRANCH  27  28
ENDBRANCH  25  27
BRANCH  23  34
HETATM   34  N12 UNK     0       0.727  11.753   4.333  1.00  0.00    -0.383 N 
HETATM   35  H48 UNK     0       1.676  11.824   4.823  1.00  0.00     0.157 HD
HETATM   36  H49 UNK     0      -0.067  12.414   4.609  1.00  0.00     0.157 HD
ENDBRANCH  23  34
ENDBRANCH  20  23
ENDBRANCH  15  17
ENDBRANCH  14  15
ENDBRANCH  10  14
ENDBRANCH   3   4
BRANCH   2  37
HETATM   37  C24 UNK     0      -5.091   3.737  -3.398  1.00  0.00     0.144 C 
BRANCH  37  38
HETATM   38  C27 UNK     0      -3.689   2.991  -3.402  1.00  0.00     0.131 C 
BRANCH  38  39
HETATM   39  C37 UNK     0      -3.308   2.579  -1.949  1.00  0.00     0.260 C 
HETATM   40  O3  UNK     0      -4.159   2.654  -1.036  1.00  0.00    -0.265 OA
BRANCH  39  41
HETATM   41  O2  UNK     0      -2.008   2.135  -1.663  1.00  0.00    -0.322 OA
BRANCH  41  42
HETATM   42  C39 UNK     0      -0.868   3.024  -1.904  1.00  0.00     0.174 C 
HETATM   43  C41 UNK     0      -0.969   4.282  -0.953  1.00  0.00     0.034 C 
ENDBRANCH  41  42
ENDBRANCH  39  41
ENDBRANCH  38  39
ENDBRANCH  37  38
ENDBRANCH   2  37
BRANCH   2  44
HETATM   44  C22 UNK     0      -4.731   5.421  -5.336  1.00  0.00     0.132 A 
HETATM   45  N10 UNK     0      -5.870   5.443  -6.197  1.00  0.00    -0.243 NA
HETATM   46  C31 UNK     0      -5.725   5.697  -7.597  1.00  0.00     0.119 A 
HETATM   47  C36 UNK     0      -4.425   5.932  -8.143  1.00  0.00     0.019 A 
HETATM   48  C32 UNK     0      -3.283   5.908  -7.285  1.00  0.00     0.005 A 
HETATM   49  C26 UNK     0      -3.430   5.654  -5.886  1.00  0.00     0.051 A 
ENDBRANCH   2  44
TORSDOF 18
ENDMDL
MODEL 9
REMARK VINA RESULT:    -7.828      5.063      8.806
REMARK INTER + INTRA:         -17.259
REMARK INTER:                 -13.731
REMARK INTRA:                  -3.529
REMARK UNBOUND:                -1.423
REMARK  18 active torsions:
REMARK  status: ('A' for Active; 'I' for Inactive)
REMARK    1  A    between atoms: O2_2  and  C37_37 
REMARK    2  A    between atoms: O2_2  and  C39_39 
REMARK    3  A    between atoms: O4_4  and  C38_38 
REMARK    4  A    between atoms: O4_4  and  C40_40 
REMARK    5  A    between atoms: N8_8  and  C24_24 
REMARK    6  A    between atoms: N8_8  and  C22_22 
REMARK       I    between atoms: N8_8  and  C19_19 
REMARK    7  A    between atoms: N9_9  and  C21_21 
REMARK    8  A    between atoms: N9_9  and  C25_25 
REMARK       I    between atoms: N11_11  and  C38_38 
REMARK    9  A    between atoms: N12_12  and  C35_35 
REMARK   10  A    between atoms: C15_15  and  C21_21 
REMARK   11  A    between atoms: C16_16  and  C19_19 
REMARK   12  A    between atoms: C24_24  and  C27_27 
REMARK   13  A    between atoms: C27_27  and  C37_37 
REMARK   14  A    between atoms: C30_30  and  C35_35 
REMARK   15  A    between atoms: C40_40  and  C42_42 
REMARK   16  A    between atoms: C42_42  and  C43_43 
REMARK   17  A    between atoms: C43_43  and  C44_44 
REMARK   18  A    between atoms: C44_44  and  C45_45 
ROOT
HETATM    1  O1  UNK     0      -7.582   5.401   2.442  1.00  0.00    -0.267 OA
HETATM    2  N8  UNK     0      -5.471   6.217   2.913  1.00  0.00    -0.298 N 
HETATM    3  C19 UNK     0      -6.467   5.747   1.994  1.00  0.00     0.259 C 
ENDROOT
BRANCH   3   4
HETATM    4  C16 UNK     0      -6.226   5.666   0.489  1.00  0.00     0.035 A 
HETATM    5  C20 UNK     0      -6.720   6.698  -0.388  1.00  0.00     0.019 A 
HETATM    6  C18 UNK     0      -6.508   6.635  -1.806  1.00  0.00     0.033 A 
HETATM    7  C13 UNK     0      -5.791   5.508  -2.300  1.00  0.00     0.064 A 
HETATM    8  N6  UNK     0      -5.443   5.179  -3.589  1.00  0.00    -0.336 N 
HETATM    9  C14 UNK     0      -5.307   4.489  -1.452  1.00  0.00     0.086 A 
HETATM   10  C15 UNK     0      -4.751   3.975  -3.531  1.00  0.00     0.124 A 
HETATM   11  C23 UNK     0      -5.756   5.986  -4.839  1.00  0.00     0.158 C 
HETATM   12  N7  UNK     0      -4.658   3.530  -2.211  1.00  0.00    -0.231 NA
HETATM   13  C17 UNK     0      -5.509   4.540  -0.040  1.00  0.00     0.051 A 
BRANCH  10  14
HETATM   14  C21 UNK     0      -4.167   3.249  -4.781  1.00  0.00     0.198 C 
BRANCH  14  15
HETATM   15  N9  UNK     0      -2.671   3.454  -4.960  1.00  0.00    -0.383 N 
HETATM   16  H47 UNK     0      -2.242   3.496  -5.939  1.00  0.00     0.160 HD
BRANCH  15  17
HETATM   17  C25 UNK     0      -1.829   3.592  -3.776  1.00  0.00     0.028 A 
HETATM   18  C28 UNK     0      -1.494   2.443  -2.991  1.00  0.00     0.030 A 
HETATM   19  C33 UNK     0      -0.665   2.591  -1.835  1.00  0.00     0.017 A 
HETATM   20  C30 UNK     0      -0.173   3.882  -1.464  1.00  0.00     0.010 A 
HETATM   21  C34 UNK     0      -0.505   5.031  -2.245  1.00  0.00     0.017 A 
HETATM   22  C29 UNK     0      -1.332   4.882  -3.400  1.00  0.00     0.030 A 
BRANCH  20  23
HETATM   23  C35 UNK     0       0.705   4.041  -0.247  1.00  0.00     0.137 C 
HETATM   24  N11 UNK     0       0.548   5.102   0.556  1.00  0.00    -0.170 NA
HETATM   25  C38 UNK     0       1.430   5.242   1.774  1.00  0.00     0.388 C 
HETATM   26  O5  UNK     0       2.407   4.479   1.928  1.00  0.00    -0.236 OA
BRANCH  25  27
HETATM   27  O4  UNK     0       1.148   6.222   2.735  1.00  0.00    -0.302 OA
BRANCH  27  28
HETATM   28  C40 UNK     0      -0.233   6.680   2.892  1.00  0.00     0.180 C 
BRANCH  28  29
HETATM   29  C42 UNK     0      -0.244   8.194   3.327  1.00  0.00     0.027 C 
BRANCH  29  30
HETATM   30  C43 UNK     0      -1.316   8.371   4.468  1.00  0.00     0.002 C 
BRANCH  30  31
HETATM   31  C44 UNK     0      -1.449   7.032   5.287  1.00  0.00    -0.000 C 
BRANCH  31  32
HETATM   32  C45 UNK     0      -2.363   7.295   6.547  1.00  0.00    -0.005 C 
HETATM   33  C46 UNK     0      -2.978   5.929   7.046  1.00  0.00     0.005 C 
ENDBRANCH  31  32
ENDBRANCH  30  31
ENDBRANCH  29  30
ENDBRANCH  28  29
ENDBRANCH  27  28
ENDBRANCH  25  27
BRANCH  23  34
HETATM   34  N12 UNK     0       1.695   3.061   0.052  1.00  0.00    -0.383 N 
HETATM   35  H48 UNK     0       1.716   2.139  -0.490  1.00  0.00     0.157 HD
HETATM   36  H49 UNK     0       2.419   3.247   0.818  1.00  0.00     0.157 HD
ENDBRANCH  23  34
ENDBRANCH  20  23
ENDBRANCH  15  17
ENDBRANCH  14  15
ENDBRANCH  10  14
ENDBRANCH   3   4
BRANCH   2  37
HETATM   37  C24 UNK     0      -4.111   6.744   2.468  1.00  0.00     0.144 C 
BRANCH  37  38
HETATM   38  C27 UNK     0      -4.262   8.243   1.964  1.00  0.00     0.131 C 
BRANCH  38  39
HETATM   39  C37 UNK     0      -3.031   8.630   1.092  1.00  0.00     0.260 C 
HETATM   40  O3  UNK     0      -2.603   9.804   1.104  1.00  0.00    -0.265 OA
BRANCH  39  41
HETATM   41  O2  UNK     0      -2.410   7.664   0.286  1.00  0.00    -0.322 OA
BRANCH  41  42
HETATM   42  C39 UNK     0      -2.872   7.459  -1.090  1.00  0.00     0.174 C 
HETATM   43  C41 UNK     0      -2.035   8.373  -2.069  1.00  0.00     0.034 C 
ENDBRANCH  41  42
ENDBRANCH  39  41
ENDBRANCH  38  39
ENDBRANCH  37  38
ENDBRANCH   2  37
BRANCH   2  44
HETATM   44  C22 UNK     0      -5.881   6.300   4.311  1.00  0.00     0.132 A 
HETATM   45  N10 UNK     0      -6.345   5.126   4.978  1.00  0.00    -0.243 NA
HETATM   46  C31 UNK     0      -6.751   5.175   6.348  1.00  0.00     0.119 A 
HETATM   47  C36 UNK     0      -6.694   6.413   7.061  1.00  0.00     0.019 A 
HETATM   48  C32 UNK     0      -6.233   7.590   6.395  1.00  0.00     0.005 A 
HETATM   49  C26 UNK     0      -5.827   7.539   5.025  1.00  0.00     0.051 A 
ENDBRANCH   2  44
TORSDOF 18
ENDMDL
