MODEL 3
REMARK VINA RESULT:    -8.022     14.467     16.165
REMARK INTER + INTRA:         -11.124
REMARK INTER:                 -10.653
REMARK INTRA:                  -0.471
REMARK UNBOUND:                -0.288
REMARK  7 active torsions:
REMARK  status: ('A' for Active; 'I' for Inactive)
REMARK    1  A    between atoms: O1_1  and  C10_10 
REMARK    2  A    between atoms: O1_1  and  C15_15 
REMARK       I    between atoms: N3_3  and  C26_26 
REMARK    3  A    between atoms: N3_3  and  C21_21 
REMARK    4  A    between atoms: N4_4  and  C20_20 
REMARK    5  A    between atoms: N5_5  and  C20_20 
REMARK       I    between atoms: N6_6  and  C26_26 
REMARK       I    between atoms: N7_7  and  C26_26 
REMARK    6  A    between atoms: C12_12  and  C20_20 
REMARK    7  A    between atoms: C15_15  and  C16_16 
ROOT
HETATM    1  O1  UNK     0     -16.538  -3.970   5.021  1.00  0.00    -0.275 OA
ENDROOT
BRANCH   1   2
HETATM    2  C10 UNK     0     -16.753  -5.197   4.303  1.00  0.00     0.080 A 
HETATM    3  C11 UNK     0     -16.605  -5.235   2.849  1.00  0.00     0.049 A 
HETATM    4  C8  UNK     0     -16.842  -6.483   2.121  1.00  0.00    -0.023 A 
HETATM    5  C17 UNK     0     -16.701  -6.532   0.668  1.00  0.00     0.013 A 
HETATM    6  C9  UNK     0     -17.228  -7.693   2.856  1.00  0.00    -0.025 A 
HETATM    7  C19 UNK     0     -16.948  -7.784  -0.048  1.00  0.00     0.016 A 
HETATM    8  C12 UNK     0     -17.337  -8.986   0.687  1.00  0.00     0.010 A 
HETATM    9  C13 UNK     0     -17.477  -8.939   2.139  1.00  0.00     0.027 A 
HETATM   10  C14 UNK     0     -17.369  -7.655   4.306  1.00  0.00     0.015 A 
HETATM   11  C18 UNK     0     -17.133  -6.410   5.028  1.00  0.00     0.038 A 
BRANCH   8  12
HETATM   12  C20 UNK     0     -17.609 -10.316  -0.067  1.00  0.00     0.123 C 
BRANCH  12  13
HETATM   13  N4  UNK     0     -16.776 -10.724  -1.076  1.00  0.00    -0.284 NA
HETATM   14  H27 UNK     0     -15.763 -10.989  -0.859  1.00  0.00     0.188 HD
ENDBRANCH  12  13
BRANCH  12  15
HETATM   15  N5  UNK     0     -18.760 -11.132   0.295  1.00  0.00    -0.384 N 
HETATM   16  H28 UNK     0     -19.647 -10.668   0.673  1.00  0.00     0.157 HD
HETATM   17  H29 UNK     0     -18.718 -12.195   0.184  1.00  0.00     0.157 HD
ENDBRANCH  12  15
ENDBRANCH   8  12
ENDBRANCH   1   2
BRANCH   1  18
HETATM   18  C15 UNK     0     -16.545  -2.706   4.339  1.00  0.00     0.298 C 
HETATM   19  O2  UNK     0     -17.623  -2.289   3.800  1.00  0.00    -0.259 OA
BRANCH  18  20
HETATM   20  C16 UNK     0     -15.254  -1.855   4.242  1.00  0.00     0.040 A 
HETATM   21  C23 UNK     0     -14.640  -1.585   2.944  1.00  0.00     0.020 A 
HETATM   22  C25 UNK     0     -13.425  -0.779   2.868  1.00  0.00     0.033 A 
HETATM   23  C21 UNK     0     -12.820  -0.246   4.086  1.00  0.00     0.075 A 
HETATM   24  C24 UNK     0     -13.436  -0.516   5.384  1.00  0.00     0.033 A 
HETATM   25  C22 UNK     0     -14.652  -1.320   5.460  1.00  0.00     0.020 A 
BRANCH  23  26
HETATM   26  N3  UNK     0     -11.527   0.606   3.994  1.00  0.00    -0.066 NA
HETATM   27  C26 UNK     0     -11.607   1.975   3.949  1.00  0.00     0.692 C 
HETATM   28  N6  UNK     0     -12.905   2.625   3.993  1.00  0.00    -0.233 N 
HETATM   29  N7  UNK     0     -10.402   2.784   3.865  1.00  0.00    -0.233 N 
HETATM   30  H31 UNK     0     -13.796   2.037   4.059  1.00  0.00     0.174 HD
HETATM   31  H30 UNK     0     -12.970   3.693   3.958  1.00  0.00     0.174 HD
HETATM   32  H33 UNK     0      -9.441   2.312   3.838  1.00  0.00     0.174 HD
HETATM   33  H32 UNK     0     -10.475   3.851   3.832  1.00  0.00     0.174 HD
ENDBRANCH  23  26
ENDBRANCH  18  20
ENDBRANCH   1  18
TORSDOF 7
ENDMDL
