MODEL 1
REMARK VINA RESULT:    -8.155      0.000      0.000
REMARK INTER + INTRA:         -11.303
REMARK INTER:                 -11.015
REMARK INTRA:                  -0.288
REMARK UNBOUND:                -0.288
REMARK  7 active torsions:
REMARK  status: ('A' for Active; 'I' for Inactive)
REMARK    1  A    between atoms: O1_1  and  C10_10 
REMARK    2  A    between atoms: O1_1  and  C15_15 
REMARK       I    between atoms: N3_3  and  C26_26 
REMARK    3  A    between atoms: N3_3  and  C21_21 
REMARK    4  A    between atoms: N4_4  and  C20_20 
REMARK    5  A    between atoms: N5_5  and  C20_20 
REMARK       I    between atoms: N6_6  and  C26_26 
REMARK       I    between atoms: N7_7  and  C26_26 
REMARK    6  A    between atoms: C12_12  and  C20_20 
REMARK    7  A    between atoms: C15_15  and  C16_16 
ROOT
HETATM    1  O1  UNK     0      -5.759   5.078   4.397  1.00  0.00    -0.275 OA
ENDROOT
BRANCH   1   2
HETATM    2  C10 UNK     0      -5.955   5.365   3.000  1.00  0.00     0.080 A 
HETATM    3  C11 UNK     0      -4.822   5.331   2.077  1.00  0.00     0.049 A 
HETATM    4  C8  UNK     0      -5.023   5.640   0.660  1.00  0.00    -0.023 A 
HETATM    5  C17 UNK     0      -3.899   5.614  -0.273  1.00  0.00     0.013 A 
HETATM    6  C9  UNK     0      -6.365   5.983   0.173  1.00  0.00    -0.025 A 
HETATM    7  C19 UNK     0      -4.113   5.931  -1.684  1.00  0.00     0.016 A 
HETATM    8  C12 UNK     0      -5.449   6.278  -2.165  1.00  0.00     0.010 A 
HETATM    9  C13 UNK     0      -6.574   6.304  -1.235  1.00  0.00     0.027 A 
HETATM   10  C14 UNK     0      -7.494   6.010   1.094  1.00  0.00     0.015 A 
HETATM   11  C18 UNK     0      -7.288   5.703   2.505  1.00  0.00     0.038 A 
BRANCH   8  12
HETATM   12  C20 UNK     0      -5.683   6.625  -3.661  1.00  0.00     0.123 C 
BRANCH  12  13
HETATM   13  N4  UNK     0      -6.175   7.853  -4.019  1.00  0.00    -0.284 NA
HETATM   14  H27 UNK     0      -5.952   8.257  -4.984  1.00  0.00     0.188 HD
ENDBRANCH  12  13
BRANCH  12  15
HETATM   15  N5  UNK     0      -5.385   5.637  -4.688  1.00  0.00    -0.384 N 
HETATM   16  H28 UNK     0      -4.440   5.135  -4.690  1.00  0.00     0.157 HD
HETATM   17  H29 UNK     0      -6.111   5.413  -5.441  1.00  0.00     0.157 HD
ENDBRANCH  12  15
ENDBRANCH   8  12
ENDBRANCH   1   2
BRANCH   1  18
HETATM   18  C15 UNK     0      -5.156   6.046   5.270  1.00  0.00     0.298 C 
HETATM   19  O2  UNK     0      -5.594   7.243   5.279  1.00  0.00    -0.259 OA
BRANCH  18  20
HETATM   20  C16 UNK     0      -3.972   5.650   6.188  1.00  0.00     0.040 A 
HETATM   21  C23 UNK     0      -2.743   6.440   6.195  1.00  0.00     0.020 A 
HETATM   22  C25 UNK     0      -1.637   6.056   7.067  1.00  0.00     0.033 A 
HETATM   23  C21 UNK     0      -1.754   4.882   7.927  1.00  0.00     0.075 A 
HETATM   24  C24 UNK     0      -2.984   4.092   7.920  1.00  0.00     0.033 A 
HETATM   25  C22 UNK     0      -4.091   4.477   7.050  1.00  0.00     0.020 A 
BRANCH  23  26
HETATM   26  N3  UNK     0      -0.571   4.481   8.847  1.00  0.00    -0.066 NA
HETATM   27  C26 UNK     0      -0.725   4.491  10.210  1.00  0.00     0.692 C 
HETATM   28  N6  UNK     0      -2.000   4.875  10.791  1.00  0.00    -0.233 N 
HETATM   29  N7  UNK     0       0.376   4.115  11.082  1.00  0.00    -0.233 N 
HETATM   30  H31 UNK     0      -2.817   5.148  10.156  1.00  0.00     0.174 HD
HETATM   31  H30 UNK     0      -2.123   4.884  11.854  1.00  0.00     0.174 HD
HETATM   32  H33 UNK     0       1.317   3.827  10.662  1.00  0.00     0.174 HD
HETATM   33  H32 UNK     0       0.245   4.126  12.144  1.00  0.00     0.174 HD
ENDBRANCH  23  26
ENDBRANCH  18  20
ENDBRANCH   1  18
TORSDOF 7
ENDMDL
MODEL 2
REMARK VINA RESULT:    -8.150      1.433      2.333
REMARK INTER + INTRA:         -11.297
REMARK INTER:                 -10.782
REMARK INTRA:                  -0.515
REMARK UNBOUND:                -0.288
REMARK  7 active torsions:
REMARK  status: ('A' for Active; 'I' for Inactive)
REMARK    1  A    between atoms: O1_1  and  C10_10 
REMARK    2  A    between atoms: O1_1  and  C15_15 
REMARK       I    between atoms: N3_3  and  C26_26 
REMARK    3  A    between atoms: N3_3  and  C21_21 
REMARK    4  A    between atoms: N4_4  and  C20_20 
REMARK    5  A    between atoms: N5_5  and  C20_20 
REMARK       I    between atoms: N6_6  and  C26_26 
REMARK       I    between atoms: N7_7  and  C26_26 
REMARK    6  A    between atoms: C12_12  and  C20_20 
REMARK    7  A    between atoms: C15_15  and  C16_16 
ROOT
HETATM    1  O1  UNK     0      -4.529   7.617   4.338  1.00  0.00    -0.275 OA
ENDROOT
BRANCH   1   2
HETATM    2  C10 UNK     0      -4.593   6.851   3.121  1.00  0.00     0.080 A 
HETATM    3  C11 UNK     0      -5.554   7.206   2.078  1.00  0.00     0.049 A 
HETATM    4  C8  UNK     0      -5.626   6.414   0.849  1.00  0.00    -0.023 A 
HETATM    5  C17 UNK     0      -6.585   6.756  -0.199  1.00  0.00     0.013 A 
HETATM    6  C9  UNK     0      -4.730   5.266   0.669  1.00  0.00    -0.025 A 
HETATM    7  C19 UNK     0      -6.651   5.952  -1.419  1.00  0.00     0.016 A 
HETATM    8  C12 UNK     0      -5.761   4.806  -1.592  1.00  0.00     0.010 A 
HETATM    9  C13 UNK     0      -4.801   4.464  -0.548  1.00  0.00     0.027 A 
HETATM   10  C14 UNK     0      -3.768   4.918   1.707  1.00  0.00     0.015 A 
HETATM   11  C18 UNK     0      -3.701   5.708   2.931  1.00  0.00     0.038 A 
BRANCH   8  12
HETATM   12  C20 UNK     0      -5.831   3.942  -2.882  1.00  0.00     0.123 C 
BRANCH  12  13
HETATM   13  N4  UNK     0      -6.196   2.623  -2.814  1.00  0.00    -0.284 NA
HETATM   14  H27 UNK     0      -5.462   1.857  -2.950  1.00  0.00     0.188 HD
ENDBRANCH  12  13
BRANCH  12  15
HETATM   15  N5  UNK     0      -5.498   4.535  -4.170  1.00  0.00    -0.384 N 
HETATM   16  H28 UNK     0      -5.197   5.561  -4.225  1.00  0.00     0.157 HD
HETATM   17  H29 UNK     0      -5.555   3.946  -5.060  1.00  0.00     0.157 HD
ENDBRANCH  12  15
ENDBRANCH   8  12
ENDBRANCH   1   2
BRANCH   1  18
HETATM   18  C15 UNK     0      -4.819   7.009   5.606  1.00  0.00     0.298 C 
HETATM   19  O2  UNK     0      -6.013   7.027   6.053  1.00  0.00    -0.259 OA
BRANCH  18  20
HETATM   20  C16 UNK     0      -3.693   6.345   6.438  1.00  0.00     0.040 A 
HETATM   21  C23 UNK     0      -3.904   5.043   7.066  1.00  0.00     0.020 A 
HETATM   22  C25 UNK     0      -2.833   4.430   7.846  1.00  0.00     0.033 A 
HETATM   23  C21 UNK     0      -1.553   5.117   8.003  1.00  0.00     0.075 A 
HETATM   24  C24 UNK     0      -1.343   6.419   7.374  1.00  0.00     0.033 A 
HETATM   25  C22 UNK     0      -2.413   7.032   6.592  1.00  0.00     0.020 A 
BRANCH  23  26
HETATM   26  N3  UNK     0      -0.423   4.457   8.837  1.00  0.00    -0.066 NA
HETATM   27  C26 UNK     0      -0.514   4.413  10.205  1.00  0.00     0.692 C 
HETATM   28  N6  UNK     0      -1.673   4.981  10.872  1.00  0.00    -0.233 N 
HETATM   29  N7  UNK     0       0.537   3.795  10.997  1.00  0.00    -0.233 N 
HETATM   30  H31 UNK     0      -2.453   5.433  10.296  1.00  0.00     0.174 HD
HETATM   31  H30 UNK     0      -1.746   4.948  11.939  1.00  0.00     0.174 HD
HETATM   32  H33 UNK     0       1.392   3.371  10.513  1.00  0.00     0.174 HD
HETATM   33  H32 UNK     0       0.456   3.766  12.063  1.00  0.00     0.174 HD
ENDBRANCH  23  26
ENDBRANCH  18  20
ENDBRANCH   1  18
TORSDOF 7
ENDMDL
MODEL 3
REMARK VINA RESULT:    -8.022     14.467     16.165
REMARK INTER + INTRA:         -11.124
REMARK INTER:                 -10.653
REMARK INTRA:                  -0.471
REMARK UNBOUND:                -0.288
REMARK  7 active torsions:
REMARK  status: ('A' for Active; 'I' for Inactive)
REMARK    1  A    between atoms: O1_1  and  C10_10 
REMARK    2  A    between atoms: O1_1  and  C15_15 
REMARK       I    between atoms: N3_3  and  C26_26 
REMARK    3  A    between atoms: N3_3  and  C21_21 
REMARK    4  A    between atoms: N4_4  and  C20_20 
REMARK    5  A    between atoms: N5_5  and  C20_20 
REMARK       I    between atoms: N6_6  and  C26_26 
REMARK       I    between atoms: N7_7  and  C26_26 
REMARK    6  A    between atoms: C12_12  and  C20_20 
REMARK    7  A    between atoms: C15_15  and  C16_16 
ROOT
HETATM    1  O1  UNK     0     -16.538  -3.970   5.021  1.00  0.00    -0.275 OA
ENDROOT
BRANCH   1   2
HETATM    2  C10 UNK     0     -16.753  -5.197   4.303  1.00  0.00     0.080 A 
HETATM    3  C11 UNK     0     -16.605  -5.235   2.849  1.00  0.00     0.049 A 
HETATM    4  C8  UNK     0     -16.842  -6.483   2.121  1.00  0.00    -0.023 A 
HETATM    5  C17 UNK     0     -16.701  -6.532   0.668  1.00  0.00     0.013 A 
HETATM    6  C9  UNK     0     -17.228  -7.693   2.856  1.00  0.00    -0.025 A 
HETATM    7  C19 UNK     0     -16.948  -7.784  -0.048  1.00  0.00     0.016 A 
HETATM    8  C12 UNK     0     -17.337  -8.986   0.687  1.00  0.00     0.010 A 
HETATM    9  C13 UNK     0     -17.477  -8.939   2.139  1.00  0.00     0.027 A 
HETATM   10  C14 UNK     0     -17.369  -7.655   4.306  1.00  0.00     0.015 A 
HETATM   11  C18 UNK     0     -17.133  -6.410   5.028  1.00  0.00     0.038 A 
BRANCH   8  12
HETATM   12  C20 UNK     0     -17.609 -10.316  -0.067  1.00  0.00     0.123 C 
BRANCH  12  13
HETATM   13  N4  UNK     0     -16.776 -10.724  -1.076  1.00  0.00    -0.284 NA
HETATM   14  H27 UNK     0     -15.763 -10.989  -0.859  1.00  0.00     0.188 HD
ENDBRANCH  12  13
BRANCH  12  15
HETATM   15  N5  UNK     0     -18.760 -11.132   0.295  1.00  0.00    -0.384 N 
HETATM   16  H28 UNK     0     -19.647 -10.668   0.673  1.00  0.00     0.157 HD
HETATM   17  H29 UNK     0     -18.718 -12.195   0.184  1.00  0.00     0.157 HD
ENDBRANCH  12  15
ENDBRANCH   8  12
ENDBRANCH   1   2
BRANCH   1  18
HETATM   18  C15 UNK     0     -16.545  -2.706   4.339  1.00  0.00     0.298 C 
HETATM   19  O2  UNK     0     -17.623  -2.289   3.800  1.00  0.00    -0.259 OA
BRANCH  18  20
HETATM   20  C16 UNK     0     -15.254  -1.855   4.242  1.00  0.00     0.040 A 
HETATM   21  C23 UNK     0     -14.640  -1.585   2.944  1.00  0.00     0.020 A 
HETATM   22  C25 UNK     0     -13.425  -0.779   2.868  1.00  0.00     0.033 A 
HETATM   23  C21 UNK     0     -12.820  -0.246   4.086  1.00  0.00     0.075 A 
HETATM   24  C24 UNK     0     -13.436  -0.516   5.384  1.00  0.00     0.033 A 
HETATM   25  C22 UNK     0     -14.652  -1.320   5.460  1.00  0.00     0.020 A 
BRANCH  23  26
HETATM   26  N3  UNK     0     -11.527   0.606   3.994  1.00  0.00    -0.066 NA
HETATM   27  C26 UNK     0     -11.607   1.975   3.949  1.00  0.00     0.692 C 
HETATM   28  N6  UNK     0     -12.905   2.625   3.993  1.00  0.00    -0.233 N 
HETATM   29  N7  UNK     0     -10.402   2.784   3.865  1.00  0.00    -0.233 N 
HETATM   30  H31 UNK     0     -13.796   2.037   4.059  1.00  0.00     0.174 HD
HETATM   31  H30 UNK     0     -12.970   3.693   3.958  1.00  0.00     0.174 HD
HETATM   32  H33 UNK     0      -9.441   2.312   3.838  1.00  0.00     0.174 HD
HETATM   33  H32 UNK     0     -10.475   3.851   3.832  1.00  0.00     0.174 HD
ENDBRANCH  23  26
ENDBRANCH  18  20
ENDBRANCH   1  18
TORSDOF 7
ENDMDL
MODEL 4
REMARK VINA RESULT:    -7.755      1.259      9.713
REMARK INTER + INTRA:         -10.763
REMARK INTER:                 -10.052
REMARK INTRA:                  -0.712
REMARK UNBOUND:                -0.288
REMARK  7 active torsions:
REMARK  status: ('A' for Active; 'I' for Inactive)
REMARK    1  A    between atoms: O1_1  and  C10_10 
REMARK    2  A    between atoms: O1_1  and  C15_15 
REMARK       I    between atoms: N3_3  and  C26_26 
REMARK    3  A    between atoms: N3_3  and  C21_21 
REMARK    4  A    between atoms: N4_4  and  C20_20 
REMARK    5  A    between atoms: N5_5  and  C20_20 
REMARK       I    between atoms: N6_6  and  C26_26 
REMARK       I    between atoms: N7_7  and  C26_26 
REMARK    6  A    between atoms: C12_12  and  C20_20 
REMARK    7  A    between atoms: C15_15  and  C16_16 
ROOT
HETATM    1  O1  UNK     0      -6.932   6.311   4.593  1.00  0.00    -0.275 OA
ENDROOT
BRANCH   1   2
HETATM    2  C10 UNK     0      -5.703   6.159   5.326  1.00  0.00     0.080 A 
HETATM    3  C11 UNK     0      -5.577   5.116   6.342  1.00  0.00     0.049 A 
HETATM    4  C8  UNK     0      -4.330   4.976   7.097  1.00  0.00    -0.023 A 
HETATM    5  C17 UNK     0      -4.193   3.940   8.118  1.00  0.00     0.013 A 
HETATM    6  C9  UNK     0      -3.210   5.886   6.828  1.00  0.00    -0.025 A 
HETATM    7  C19 UNK     0      -2.944   3.816   8.870  1.00  0.00     0.016 A 
HETATM    8  C12 UNK     0      -1.833   4.728   8.603  1.00  0.00     0.010 A 
HETATM    9  C13 UNK     0      -1.967   5.762   7.583  1.00  0.00     0.027 A 
HETATM   10  C14 UNK     0      -3.336   6.921   5.810  1.00  0.00     0.015 A 
HETATM   11  C18 UNK     0      -4.580   7.058   5.062  1.00  0.00     0.038 A 
BRANCH   8  12
HETATM   12  C20 UNK     0      -0.507   4.608   9.403  1.00  0.00     0.123 C 
BRANCH  12  13
HETATM   13  N4  UNK     0       0.683   4.426   8.749  1.00  0.00    -0.284 NA
HETATM   14  H27 UNK     0       1.201   5.267   8.337  1.00  0.00     0.188 HD
ENDBRANCH  12  13
BRANCH  12  15
HETATM   15  N5  UNK     0      -0.529   4.681  10.857  1.00  0.00    -0.384 N 
HETATM   16  H28 UNK     0      -1.444   4.516  11.388  1.00  0.00     0.157 HD
HETATM   17  H29 UNK     0       0.369   4.899  11.395  1.00  0.00     0.157 HD
ENDBRANCH  12  15
ENDBRANCH   8  12
ENDBRANCH   1   2
BRANCH   1  18
HETATM   18  C15 UNK     0      -7.252   5.434   3.502  1.00  0.00     0.298 C 
HETATM   19  O2  UNK     0      -8.004   4.425   3.707  1.00  0.00    -0.259 OA
BRANCH  18  20
HETATM   20  C16 UNK     0      -6.682   5.696   2.085  1.00  0.00     0.040 A 
HETATM   21  C23 UNK     0      -7.494   6.361   1.070  1.00  0.00     0.020 A 
HETATM   22  C25 UNK     0      -6.943   6.603  -0.260  1.00  0.00     0.033 A 
HETATM   23  C21 UNK     0      -5.582   6.178  -0.578  1.00  0.00     0.075 A 
HETATM   24  C24 UNK     0      -4.769   5.514   0.439  1.00  0.00     0.033 A 
HETATM   25  C22 UNK     0      -5.320   5.274   1.769  1.00  0.00     0.020 A 
BRANCH  23  26
HETATM   26  N3  UNK     0      -5.007   6.437  -1.995  1.00  0.00    -0.066 NA
HETATM   27  C26 UNK     0      -5.228   5.533  -3.004  1.00  0.00     0.692 C 
HETATM   28  N6  UNK     0      -6.006   4.334  -2.742  1.00  0.00    -0.233 N 
HETATM   29  N7  UNK     0      -4.696   5.766  -4.337  1.00  0.00    -0.233 N 
HETATM   30  H31 UNK     0      -6.405   4.158  -1.765  1.00  0.00     0.174 HD
HETATM   31  H30 UNK     0      -6.180   3.628  -3.527  1.00  0.00     0.174 HD
HETATM   32  H33 UNK     0      -4.126   6.649  -4.538  1.00  0.00     0.174 HD
HETATM   33  H32 UNK     0      -4.875   5.055  -5.116  1.00  0.00     0.174 HD
ENDBRANCH  23  26
ENDBRANCH  18  20
ENDBRANCH   1  18
TORSDOF 7
ENDMDL
MODEL 5
REMARK VINA RESULT:    -7.753      1.782     10.070
REMARK INTER + INTRA:         -10.760
REMARK INTER:                 -10.148
REMARK INTRA:                  -0.612
REMARK UNBOUND:                -0.288
REMARK  7 active torsions:
REMARK  status: ('A' for Active; 'I' for Inactive)
REMARK    1  A    between atoms: O1_1  and  C10_10 
REMARK    2  A    between atoms: O1_1  and  C15_15 
REMARK       I    between atoms: N3_3  and  C26_26 
REMARK    3  A    between atoms: N3_3  and  C21_21 
REMARK    4  A    between atoms: N4_4  and  C20_20 
REMARK    5  A    between atoms: N5_5  and  C20_20 
REMARK       I    between atoms: N6_6  and  C26_26 
REMARK       I    between atoms: N7_7  and  C26_26 
REMARK    6  A    between atoms: C12_12  and  C20_20 
REMARK    7  A    between atoms: C15_15  and  C16_16 
ROOT
HETATM    1  O1  UNK     0      -5.491   5.365   5.981  1.00  0.00    -0.275 OA
ENDROOT
BRANCH   1   2
HETATM    2  C10 UNK     0      -4.180   5.375   6.574  1.00  0.00     0.080 A 
HETATM    3  C11 UNK     0      -3.946   4.708   7.854  1.00  0.00     0.049 A 
HETATM    4  C8  UNK     0      -2.614   4.735   8.461  1.00  0.00    -0.023 A 
HETATM    5  C17 UNK     0      -2.369   4.077   9.742  1.00  0.00     0.013 A 
HETATM    6  C9  UNK     0      -1.518   5.434   7.780  1.00  0.00    -0.025 A 
HETATM    7  C19 UNK     0      -1.035   4.118  10.341  1.00  0.00     0.016 A 
HETATM    8  C12 UNK     0       0.054   4.819   9.662  1.00  0.00     0.010 A 
HETATM    9  C13 UNK     0      -0.189   5.476   8.382  1.00  0.00     0.027 A 
HETATM   10  C14 UNK     0      -1.751   6.092   6.501  1.00  0.00     0.015 A 
HETATM   11  C18 UNK     0      -3.080   6.063   5.900  1.00  0.00     0.038 A 
BRANCH   8  12
HETATM   12  C20 UNK     0       1.471   4.874  10.295  1.00  0.00     0.123 C 
BRANCH  12  13
HETATM   13  N4  UNK     0       2.205   6.030  10.252  1.00  0.00    -0.284 NA
HETATM   14  H27 UNK     0       2.969   6.151   9.512  1.00  0.00     0.188 HD
ENDBRANCH  12  13
BRANCH  12  15
HETATM   15  N5  UNK     0       2.026   3.688  10.933  1.00  0.00    -0.384 N 
HETATM   16  H28 UNK     0       2.093   2.770  10.387  1.00  0.00     0.157 HD
HETATM   17  H29 UNK     0       2.367   3.735  11.945  1.00  0.00     0.157 HD
ENDBRANCH  12  15
ENDBRANCH   8  12
ENDBRANCH   1   2
BRANCH   1  18
HETATM   18  C15 UNK     0      -5.988   6.511   5.273  1.00  0.00     0.298 C 
HETATM   19  O2  UNK     0      -6.321   7.555   5.923  1.00  0.00    -0.259 OA
BRANCH  18  20
HETATM   20  C16 UNK     0      -6.135   6.482   3.731  1.00  0.00     0.040 A 
HETATM   21  C23 UNK     0      -7.286   5.834   3.107  1.00  0.00     0.020 A 
HETATM   22  C25 UNK     0      -7.412   5.817   1.653  1.00  0.00     0.033 A 
HETATM   23  C21 UNK     0      -6.388   6.443   0.820  1.00  0.00     0.075 A 
HETATM   24  C24 UNK     0      -5.237   7.092   1.445  1.00  0.00     0.033 A 
HETATM   25  C22 UNK     0      -5.112   7.111   2.900  1.00  0.00     0.020 A 
BRANCH  23  26
HETATM   26  N3  UNK     0      -6.530   6.416  -0.724  1.00  0.00    -0.066 NA
HETATM   27  C26 UNK     0      -6.131   5.310  -1.433  1.00  0.00     0.692 C 
HETATM   28  N6  UNK     0      -5.578   4.163  -0.733  1.00  0.00    -0.233 N 
HETATM   29  N7  UNK     0      -6.261   5.273  -2.880  1.00  0.00    -0.233 N 
HETATM   30  H31 UNK     0      -5.483   4.181   0.333  1.00  0.00     0.174 HD
HETATM   31  H30 UNK     0      -5.266   3.300  -1.283  1.00  0.00     0.174 HD
HETATM   32  H33 UNK     0      -6.671   6.112  -3.403  1.00  0.00     0.174 HD
HETATM   33  H32 UNK     0      -5.947   4.405  -3.423  1.00  0.00     0.174 HD
ENDBRANCH  23  26
ENDBRANCH  18  20
ENDBRANCH   1  18
TORSDOF 7
ENDMDL
MODEL 6
REMARK VINA RESULT:    -7.731      4.193      5.027
REMARK INTER + INTRA:         -10.730
REMARK INTER:                 -10.299
REMARK INTRA:                  -0.431
REMARK UNBOUND:                -0.288
REMARK  7 active torsions:
REMARK  status: ('A' for Active; 'I' for Inactive)
REMARK    1  A    between atoms: O1_1  and  C10_10 
REMARK    2  A    between atoms: O1_1  and  C15_15 
REMARK       I    between atoms: N3_3  and  C26_26 
REMARK    3  A    between atoms: N3_3  and  C21_21 
REMARK    4  A    between atoms: N4_4  and  C20_20 
REMARK    5  A    between atoms: N5_5  and  C20_20 
REMARK       I    between atoms: N6_6  and  C26_26 
REMARK       I    between atoms: N7_7  and  C26_26 
REMARK    6  A    between atoms: C12_12  and  C20_20 
REMARK    7  A    between atoms: C15_15  and  C16_16 
ROOT
HETATM    1  O1  UNK     0      -4.907   6.530   5.143  1.00  0.00    -0.275 OA
ENDROOT
BRANCH   1   2
HETATM    2  C10 UNK     0      -4.595   7.663   4.313  1.00  0.00     0.080 A 
HETATM    3  C11 UNK     0      -5.060   8.998   4.686  1.00  0.00     0.049 A 
HETATM    4  C8  UNK     0      -4.754  10.146   3.829  1.00  0.00    -0.023 A 
HETATM    5  C17 UNK     0      -5.216  11.484   4.188  1.00  0.00     0.013 A 
HETATM    6  C9  UNK     0      -3.981   9.949   2.597  1.00  0.00    -0.025 A 
HETATM    7  C19 UNK     0      -4.910  12.620   3.320  1.00  0.00     0.016 A 
HETATM    8  C12 UNK     0      -4.144  12.420   2.091  1.00  0.00     0.010 A 
HETATM    9  C13 UNK     0      -3.681  11.084   1.730  1.00  0.00     0.027 A 
HETATM   10  C14 UNK     0      -3.514   8.618   2.230  1.00  0.00     0.015 A 
HETATM   11  C18 UNK     0      -3.821   7.478   3.086  1.00  0.00     0.038 A 
BRANCH   8  12
HETATM   12  C20 UNK     0      -3.823  13.620   1.159  1.00  0.00     0.123 C 
BRANCH  12  13
HETATM   13  N4  UNK     0      -3.871  13.473  -0.203  1.00  0.00    -0.284 NA
HETATM   14  H27 UNK     0      -3.140  12.872  -0.702  1.00  0.00     0.188 HD
ENDBRANCH  12  13
BRANCH  12  15
HETATM   15  N5  UNK     0      -3.460  14.907   1.735  1.00  0.00    -0.384 N 
HETATM   16  H28 UNK     0      -3.294  15.751   1.097  1.00  0.00     0.157 HD
HETATM   17  H29 UNK     0      -3.359  15.010   2.795  1.00  0.00     0.157 HD
ENDBRANCH  12  15
ENDBRANCH   8  12
ENDBRANCH   1   2
BRANCH   1  18
HETATM   18  C15 UNK     0      -4.673   6.568   6.559  1.00  0.00     0.298 C 
HETATM   19  O2  UNK     0      -5.517   7.144   7.320  1.00  0.00    -0.259 OA
BRANCH  18  20
HETATM   20  C16 UNK     0      -3.399   5.928   7.166  1.00  0.00     0.040 A 
HETATM   21  C23 UNK     0      -3.486   4.694   7.942  1.00  0.00     0.020 A 
HETATM   22  C25 UNK     0      -2.277   4.102   8.506  1.00  0.00     0.033 A 
HETATM   23  C21 UNK     0      -0.981   4.742   8.298  1.00  0.00     0.075 A 
HETATM   24  C24 UNK     0      -0.894   5.977   7.520  1.00  0.00     0.033 A 
HETATM   25  C22 UNK     0      -2.103   6.568   6.955  1.00  0.00     0.020 A 
BRANCH  23  26
HETATM   26  N3  UNK     0       0.298   4.106   8.905  1.00  0.00    -0.066 NA
HETATM   27  C26 UNK     0       0.545   4.208  10.250  1.00  0.00     0.692 C 
HETATM   28  N6  UNK     0      -0.395   4.909  11.108  1.00  0.00    -0.233 N 
HETATM   29  N7  UNK     0       1.739   3.614  10.830  1.00  0.00    -0.233 N 
HETATM   30  H31 UNK     0      -1.278   5.345  10.689  1.00  0.00     0.174 HD
HETATM   31  H30 UNK     0      -0.204   4.990  12.157  1.00  0.00     0.174 HD
HETATM   32  H33 UNK     0       2.434   3.092  10.207  1.00  0.00     0.174 HD
HETATM   33  H32 UNK     0       1.922   3.698  11.881  1.00  0.00     0.174 HD
ENDBRANCH  23  26
ENDBRANCH  18  20
ENDBRANCH   1  18
TORSDOF 7
ENDMDL
MODEL 7
REMARK VINA RESULT:    -7.697      5.290      6.339
REMARK INTER + INTRA:         -10.685
REMARK INTER:                 -10.085
REMARK INTRA:                  -0.599
REMARK UNBOUND:                -0.288
REMARK  7 active torsions:
REMARK  status: ('A' for Active; 'I' for Inactive)
REMARK    1  A    between atoms: O1_1  and  C10_10 
REMARK    2  A    between atoms: O1_1  and  C15_15 
REMARK       I    between atoms: N3_3  and  C26_26 
REMARK    3  A    between atoms: N3_3  and  C21_21 
REMARK    4  A    between atoms: N4_4  and  C20_20 
REMARK    5  A    between atoms: N5_5  and  C20_20 
REMARK       I    between atoms: N6_6  and  C26_26 
REMARK       I    between atoms: N7_7  and  C26_26 
REMARK    6  A    between atoms: C12_12  and  C20_20 
REMARK    7  A    between atoms: C15_15  and  C16_16 
ROOT
HETATM    1  O1  UNK     0      -5.832   7.842   6.367  1.00  0.00    -0.275 OA
ENDROOT
BRANCH   1   2
HETATM    2  C10 UNK     0      -7.024   7.042   6.465  1.00  0.00     0.080 A 
HETATM    3  C11 UNK     0      -7.247   5.937   5.534  1.00  0.00     0.049 A 
HETATM    4  C8  UNK     0      -8.469   5.137   5.628  1.00  0.00    -0.023 A 
HETATM    5  C17 UNK     0      -8.706   4.033   4.701  1.00  0.00     0.013 A 
HETATM    6  C9  UNK     0      -9.467   5.449   6.658  1.00  0.00    -0.025 A 
HETATM    7  C19 UNK     0      -9.935   3.246   4.801  1.00  0.00     0.016 A 
HETATM    8  C12 UNK     0     -10.929   3.563   5.825  1.00  0.00     0.010 A 
HETATM    9  C13 UNK     0     -10.694   4.664   6.753  1.00  0.00     0.027 A 
HETATM   10  C14 UNK     0      -9.239   6.546   7.589  1.00  0.00     0.015 A 
HETATM   11  C18 UNK     0      -8.021   7.342   7.492  1.00  0.00     0.038 A 
BRANCH   8  12
HETATM   12  C20 UNK     0     -12.240   2.737   5.932  1.00  0.00     0.123 C 
BRANCH  12  13
HETATM   13  N4  UNK     0     -13.015   2.520   4.823  1.00  0.00    -0.284 NA
HETATM   14  H27 UNK     0     -12.842   1.662   4.209  1.00  0.00     0.188 HD
ENDBRANCH  12  13
BRANCH  12  15
HETATM   15  N5  UNK     0     -12.652   2.196   7.220  1.00  0.00    -0.384 N 
HETATM   16  H28 UNK     0     -12.147   1.346   7.630  1.00  0.00     0.157 HD
HETATM   17  H29 UNK     0     -13.460   2.647   7.756  1.00  0.00     0.157 HD
ENDBRANCH  12  15
ENDBRANCH   8  12
ENDBRANCH   1   2
BRANCH   1  18
HETATM   18  C15 UNK     0      -4.659   7.339   5.708  1.00  0.00     0.298 C 
HETATM   19  O2  UNK     0      -4.528   7.499   4.450  1.00  0.00    -0.259 OA
BRANCH  18  20
HETATM   20  C16 UNK     0      -3.563   6.593   6.510  1.00  0.00     0.040 A 
HETATM   21  C23 UNK     0      -2.286   7.240   6.799  1.00  0.00     0.020 A 
HETATM   22  C25 UNK     0      -1.263   6.525   7.557  1.00  0.00     0.033 A 
HETATM   23  C21 UNK     0      -1.513   5.163   8.023  1.00  0.00     0.075 A 
HETATM   24  C24 UNK     0      -2.791   4.517   7.734  1.00  0.00     0.033 A 
HETATM   25  C22 UNK     0      -3.815   5.232   6.978  1.00  0.00     0.020 A 
BRANCH  23  26
HETATM   26  N3  UNK     0      -0.418   4.412   8.825  1.00  0.00    -0.066 NA
HETATM   27  C26 UNK     0      -0.491   4.346  10.194  1.00  0.00     0.692 C 
HETATM   28  N6  UNK     0      -1.597   4.979  10.891  1.00  0.00    -0.233 N 
HETATM   29  N7  UNK     0       0.528   3.643  10.956  1.00  0.00    -0.233 N 
HETATM   30  H31 UNK     0      -2.354   5.495  10.337  1.00  0.00     0.174 HD
HETATM   31  H30 UNK     0      -1.656   4.930  11.958  1.00  0.00     0.174 HD
HETATM   32  H33 UNK     0       1.344   3.170  10.450  1.00  0.00     0.174 HD
HETATM   33  H32 UNK     0       0.462   3.597  12.023  1.00  0.00     0.174 HD
ENDBRANCH  23  26
ENDBRANCH  18  20
ENDBRANCH   1  18
TORSDOF 7
ENDMDL
MODEL 8
REMARK VINA RESULT:    -7.677      1.303      9.611
REMARK INTER + INTRA:         -10.657
REMARK INTER:                 -10.026
REMARK INTRA:                  -0.631
REMARK UNBOUND:                -0.288
REMARK  7 active torsions:
REMARK  status: ('A' for Active; 'I' for Inactive)
REMARK    1  A    between atoms: O1_1  and  C10_10 
REMARK    2  A    between atoms: O1_1  and  C15_15 
REMARK       I    between atoms: N3_3  and  C26_26 
REMARK    3  A    between atoms: N3_3  and  C21_21 
REMARK    4  A    between atoms: N4_4  and  C20_20 
REMARK    5  A    between atoms: N5_5  and  C20_20 
REMARK       I    between atoms: N6_6  and  C26_26 
REMARK       I    between atoms: N7_7  and  C26_26 
REMARK    6  A    between atoms: C12_12  and  C20_20 
REMARK    7  A    between atoms: C15_15  and  C16_16 
ROOT
HETATM    1  O1  UNK     0      -6.915   6.203   4.724  1.00  0.00    -0.275 OA
ENDROOT
BRANCH   1   2
HETATM    2  C10 UNK     0      -5.894   5.785   5.647  1.00  0.00     0.080 A 
HETATM    3  C11 UNK     0      -4.592   6.450   5.655  1.00  0.00     0.049 A 
HETATM    4  C8  UNK     0      -3.551   6.010   6.586  1.00  0.00    -0.023 A 
HETATM    5  C17 UNK     0      -2.244   6.663   6.601  1.00  0.00     0.013 A 
HETATM    6  C9  UNK     0      -3.820   4.900   7.507  1.00  0.00    -0.025 A 
HETATM    7  C19 UNK     0      -1.211   6.209   7.531  1.00  0.00     0.016 A 
HETATM    8  C12 UNK     0      -1.481   5.099   8.443  1.00  0.00     0.010 A 
HETATM    9  C13 UNK     0      -2.785   4.446   8.431  1.00  0.00     0.027 A 
HETATM   10  C14 UNK     0      -5.120   4.242   7.502  1.00  0.00     0.015 A 
HETATM   11  C18 UNK     0      -6.154   4.683   6.573  1.00  0.00     0.038 A 
BRANCH   8  12
HETATM   12  C20 UNK     0      -0.385   4.605   9.428  1.00  0.00     0.123 C 
BRANCH  12  13
HETATM   13  N4  UNK     0       0.865   4.282   8.968  1.00  0.00    -0.284 NA
HETATM   14  H27 UNK     0       1.726   4.495   9.566  1.00  0.00     0.188 HD
ENDBRANCH  12  13
BRANCH  12  15
HETATM   15  N5  UNK     0      -0.690   4.477  10.846  1.00  0.00    -0.384 N 
HETATM   16  H28 UNK     0       0.035   4.059  11.513  1.00  0.00     0.157 HD
HETATM   17  H29 UNK     0      -1.638   4.801  11.221  1.00  0.00     0.157 HD
ENDBRANCH  12  15
ENDBRANCH   8  12
ENDBRANCH   1   2
BRANCH   1  18
HETATM   18  C15 UNK     0      -7.267   5.388   3.595  1.00  0.00     0.298 C 
HETATM   19  O2  UNK     0      -8.094   4.430   3.746  1.00  0.00    -0.259 OA
BRANCH  18  20
HETATM   20  C16 UNK     0      -6.640   5.653   2.204  1.00  0.00     0.040 A 
HETATM   21  C23 UNK     0      -5.269   5.238   1.916  1.00  0.00     0.020 A 
HETATM   22  C25 UNK     0      -4.692   5.494   0.600  1.00  0.00     0.033 A 
HETATM   23  C21 UNK     0      -5.481   6.167  -0.429  1.00  0.00     0.075 A 
HETATM   24  C24 UNK     0      -6.853   6.582  -0.141  1.00  0.00     0.033 A 
HETATM   25  C22 UNK     0      -7.430   6.324   1.175  1.00  0.00     0.020 A 
BRANCH  23  26
HETATM   26  N3  UNK     0      -4.857   6.437  -1.823  1.00  0.00    -0.066 NA
HETATM   27  C26 UNK     0      -5.054   5.547  -2.849  1.00  0.00     0.692 C 
HETATM   28  N6  UNK     0      -5.851   4.352  -2.627  1.00  0.00    -0.233 N 
HETATM   29  N7  UNK     0      -4.477   5.790  -4.161  1.00  0.00    -0.233 N 
HETATM   30  H31 UNK     0      -6.284   4.169  -1.666  1.00  0.00     0.174 HD
HETATM   31  H30 UNK     0      -6.006   3.656  -3.425  1.00  0.00     0.174 HD
HETATM   32  H33 UNK     0      -3.892   6.669  -4.333  1.00  0.00     0.174 HD
HETATM   33  H32 UNK     0      -4.637   5.089  -4.954  1.00  0.00     0.174 HD
ENDBRANCH  23  26
ENDBRANCH  18  20
ENDBRANCH   1  18
TORSDOF 7
ENDMDL
MODEL 9
REMARK VINA RESULT:    -7.668     13.661     17.103
REMARK INTER + INTRA:         -10.645
REMARK INTER:                  -9.992
REMARK INTRA:                  -0.653
REMARK UNBOUND:                -0.288
REMARK  7 active torsions:
REMARK  status: ('A' for Active; 'I' for Inactive)
REMARK    1  A    between atoms: O1_1  and  C10_10 
REMARK    2  A    between atoms: O1_1  and  C15_15 
REMARK       I    between atoms: N3_3  and  C26_26 
REMARK    3  A    between atoms: N3_3  and  C21_21 
REMARK    4  A    between atoms: N4_4  and  C20_20 
REMARK    5  A    between atoms: N5_5  and  C20_20 
REMARK       I    between atoms: N6_6  and  C26_26 
REMARK       I    between atoms: N7_7  and  C26_26 
REMARK    6  A    between atoms: C12_12  and  C20_20 
REMARK    7  A    between atoms: C15_15  and  C16_16 
ROOT
HETATM    1  O1  UNK     0     -15.906  -1.536   3.381  1.00  0.00    -0.275 OA
ENDROOT
BRANCH   1   2
HETATM    2  C10 UNK     0     -16.224  -2.905   3.689  1.00  0.00     0.080 A 
HETATM    3  C11 UNK     0     -16.256  -3.910   2.627  1.00  0.00     0.049 A 
HETATM    4  C8  UNK     0     -16.595  -5.298   2.943  1.00  0.00    -0.023 A 
HETATM    5  C17 UNK     0     -16.635  -6.310   1.890  1.00  0.00     0.013 A 
HETATM    6  C9  UNK     0     -16.903  -5.676   4.328  1.00  0.00    -0.025 A 
HETATM    7  C19 UNK     0     -16.983  -7.693   2.219  1.00  0.00     0.016 A 
HETATM    8  C12 UNK     0     -17.293  -8.064   3.598  1.00  0.00     0.010 A 
HETATM    9  C13 UNK     0     -17.253  -7.055   4.651  1.00  0.00     0.027 A 
HETATM   10  C14 UNK     0     -16.864  -4.675   5.386  1.00  0.00     0.015 A 
HETATM   11  C18 UNK     0     -16.526  -3.292   5.067  1.00  0.00     0.038 A 
BRANCH   8  12
HETATM   12  C20 UNK     0     -17.672  -9.528   3.953  1.00  0.00     0.123 C 
BRANCH  12  13
HETATM   13  N4  UNK     0     -17.990  -9.869   5.242  1.00  0.00    -0.284 NA
HETATM   14  H27 UNK     0     -17.214 -10.028   5.961  1.00  0.00     0.188 HD
ENDBRANCH  12  13
BRANCH  12  15
HETATM   15  N5  UNK     0     -17.680 -10.547   2.913  1.00  0.00    -0.384 N 
HETATM   16  H28 UNK     0     -18.380 -10.481   2.105  1.00  0.00     0.157 HD
HETATM   17  H29 UNK     0     -16.988 -11.361   2.955  1.00  0.00     0.157 HD
ENDBRANCH  12  15
ENDBRANCH   8  12
ENDBRANCH   1   2
BRANCH   1  18
HETATM   18  C15 UNK     0     -14.736  -1.205   2.618  1.00  0.00     0.298 C 
HETATM   19  O2  UNK     0     -13.581  -1.423   3.111  1.00  0.00    -0.259 OA
BRANCH  18  20
HETATM   20  C16 UNK     0     -14.867  -0.574   1.209  1.00  0.00     0.040 A 
HETATM   21  C23 UNK     0     -15.621  -1.254   0.158  1.00  0.00     0.020 A 
HETATM   22  C25 UNK     0     -15.736  -0.646  -1.164  1.00  0.00     0.033 A 
HETATM   23  C21 UNK     0     -15.096   0.637  -1.440  1.00  0.00     0.075 A 
HETATM   24  C24 UNK     0     -14.342   1.317  -0.389  1.00  0.00     0.033 A 
HETATM   25  C22 UNK     0     -14.229   0.711   0.934  1.00  0.00     0.020 A 
BRANCH  23  26
HETATM   26  N3  UNK     0     -15.223   1.273  -2.850  1.00  0.00    -0.066 NA
HETATM   27  C26 UNK     0     -14.320   0.952  -3.832  1.00  0.00     0.692 C 
HETATM   28  N6  UNK     0     -13.248   0.012  -3.551  1.00  0.00    -0.233 N 
HETATM   29  N7  UNK     0     -14.430   1.539  -5.158  1.00  0.00    -0.233 N 
HETATM   30  H31 UNK     0     -13.164  -0.428  -2.580  1.00  0.00     0.174 HD
HETATM   31  H30 UNK     0     -12.543  -0.239  -4.316  1.00  0.00     0.174 HD
HETATM   32  H33 UNK     0     -15.219   2.228  -5.375  1.00  0.00     0.174 HD
HETATM   33  H32 UNK     0     -13.721   1.281  -5.917  1.00  0.00     0.174 HD
ENDBRANCH  23  26
ENDBRANCH  18  20
ENDBRANCH   1  18
TORSDOF 7
ENDMDL
