MODEL 2
REMARK VINA RESULT:    -6.095      9.722     12.919
REMARK INTER + INTRA:         -13.349
REMARK INTER:                 -11.999
REMARK INTRA:                  -1.350
REMARK UNBOUND:                -2.800
REMARK  13 active torsions:
REMARK  status: ('A' for Active; 'I' for Inactive)
REMARK    1  A    between atoms: S1_1  and  O11_11 
REMARK    2  A    between atoms: S1_1  and  C9_9 
REMARK    3  A    between atoms: S1_1  and  N2_2 
REMARK    4  A    between atoms: N2_2  and  C5_5 
REMARK       I    between atoms: N3_3  and  C4_4 
REMARK    5  A    between atoms: N3_3  and  C6_6 
REMARK    6  A    between atoms: C4_4  and  C5_5 
REMARK    7  A    between atoms: C5_5  and  C24_24 
REMARK    8  A    between atoms: C6_6  and  C8_8 
REMARK    9  A    between atoms: C6_6  and  C19_19 
REMARK       I    between atoms: C7_7  and  N15_15 
REMARK       I    between atoms: C7_7  and  N18_18 
REMARK   10  A    between atoms: C8_8  and  O20_20 
REMARK   11  A    between atoms: N15_15  and  C25_25 
REMARK   12  A    between atoms: C24_24  and  C30_30 
REMARK   13  A    between atoms: C25_25  and  C30_30 
ROOT
HETATM    1  S1  UNK     0      -4.614   5.249   5.474  1.00  0.00     0.126 S 
HETATM    2  O10 UNK     0      -4.754   5.171   4.001  1.00  0.00    -0.236 OA
ENDROOT
BRANCH   1   3
HETATM    3  O11 UNK     0      -3.490   6.150   5.818  1.00  0.00     0.000 OA
HETATM    4  H45 UNK     0      -2.658   5.578   6.106  1.00  0.00     0.000 HD
ENDBRANCH   1   3
BRANCH   1   5
HETATM    5  C9  UNK     0      -6.133   5.899   6.190  1.00  0.00     0.047 A 
HETATM    6  C17 UNK     0      -7.394   5.350   5.817  1.00  0.00     0.023 A 
HETATM    7  C22 UNK     0      -8.595   5.868   6.386  1.00  0.00     0.008 A 
HETATM    8  C23 UNK     0      -8.536   6.932   7.334  1.00  0.00    -0.062 A 
HETATM    9  C21 UNK     0      -7.276   7.482   7.704  1.00  0.00     0.008 A 
HETATM   10  C28 UNK     0      -9.841   7.500   7.959  1.00  0.00     0.048 C 
HETATM   11  C16 UNK     0      -6.075   6.966   7.132  1.00  0.00     0.023 A 
ENDBRANCH   1   5
BRANCH   1  12
HETATM   12  N2  UNK     0      -4.282   3.714   6.087  1.00  0.00    -0.225 NA
HETATM   13  H33 UNK     0      -3.347   3.350   5.714  1.00  0.00     0.138 HD
BRANCH  12  14
HETATM   14  C5  UNK     0      -4.218   3.920   7.586  1.00  0.00     0.161 C 
BRANCH  14  15
HETATM   15  C4  UNK     0      -5.157   2.914   8.316  1.00  0.00     0.236 C 
HETATM   16  N3  UNK     0      -4.654   1.781   9.016  1.00  0.00    -0.345 N 
HETATM   17  H34 UNK     0      -3.600   1.637   9.137  1.00  0.00     0.163 HD
HETATM   18  O13 UNK     0      -6.387   3.076   8.239  1.00  0.00    -0.272 OA
BRANCH  16  19
HETATM   19  C6  UNK     0      -5.643   0.785   9.586  1.00  0.00     0.187 C 
BRANCH  19  20
HETATM   20  C8  UNK     0      -5.964   1.151  11.067  1.00  0.00     0.281 C 
HETATM   21  O14 UNK     0      -5.059   1.099  11.919  1.00  0.00    -0.263 OA
BRANCH  20  22
HETATM   22  O20 UNK     0      -7.254   1.537  11.453  1.00  0.00    -0.325 OA
HETATM   23  C29 UNK     0      -7.533   2.195  12.729  1.00  0.00     0.213 C 
ENDBRANCH  20  22
ENDBRANCH  19  20
BRANCH  19  24
HETATM   24  C19 UNK     0      -5.018  -0.668   9.529  1.00  0.00     0.010 C 
HETATM   25  C26 UNK     0      -4.621  -1.041   8.052  1.00  0.00     0.012 C 
HETATM   26  C27 UNK     0      -6.045  -1.738  10.065  1.00  0.00     0.012 C 
ENDBRANCH  19  24
ENDBRANCH  16  19
ENDBRANCH  14  15
BRANCH  14  27
HETATM   27  C24 UNK     0      -2.739   3.687   8.075  1.00  0.00     0.032 C 
BRANCH  27  28
HETATM   28  C30 UNK     0      -2.287   4.724   9.170  1.00  0.00     0.024 C 
BRANCH  28  29
HETATM   29  C25 UNK     0      -0.854   5.244   8.776  1.00  0.00     0.169 C 
BRANCH  29  30
HETATM   30  N15 UNK     0       0.198   4.222   9.146  1.00  0.00    -0.108 NA
HETATM   31  C7  UNK     0       0.658   4.142  10.487  1.00  0.00     0.686 C 
HETATM   32  N18 UNK     0       1.616   3.160  10.855  1.00  0.00    -0.234 N 
HETATM   33  N12 UNK     0       0.190   4.988  11.408  1.00  0.00    -0.234 N 
HETATM   34  H39 UNK     0       1.993   2.479  10.120  1.00  0.00     0.174 HD
HETATM   35  H40 UNK     0       1.961   3.102  11.865  1.00  0.00     0.174 HD
HETATM   36  H35 UNK     0      -0.532   5.729  11.136  1.00  0.00     0.174 HD
HETATM   37  H32 UNK     0       0.539   4.927  12.418  1.00  0.00     0.174 HD
ENDBRANCH  29  30
ENDBRANCH  28  29
ENDBRANCH  27  28
ENDBRANCH  14  27
ENDBRANCH  12  14
ENDBRANCH   1  12
TORSDOF 13
ENDMDL
