MODEL 1
REMARK VINA RESULT:    -6.249      0.000      0.000
REMARK INTER + INTRA:         -13.616
REMARK INTER:                 -10.815
REMARK INTRA:                  -2.800
REMARK UNBOUND:                -2.800
REMARK  13 active torsions:
REMARK  status: ('A' for Active; 'I' for Inactive)
REMARK    1  A    between atoms: S1_1  and  O11_11 
REMARK    2  A    between atoms: S1_1  and  C9_9 
REMARK    3  A    between atoms: S1_1  and  N2_2 
REMARK    4  A    between atoms: N2_2  and  C5_5 
REMARK       I    between atoms: N3_3  and  C4_4 
REMARK    5  A    between atoms: N3_3  and  C6_6 
REMARK    6  A    between atoms: C4_4  and  C5_5 
REMARK    7  A    between atoms: C5_5  and  C24_24 
REMARK    8  A    between atoms: C6_6  and  C8_8 
REMARK    9  A    between atoms: C6_6  and  C19_19 
REMARK       I    between atoms: C7_7  and  N15_15 
REMARK       I    between atoms: C7_7  and  N18_18 
REMARK   10  A    between atoms: C8_8  and  O20_20 
REMARK   11  A    between atoms: N15_15  and  C25_25 
REMARK   12  A    between atoms: C24_24  and  C30_30 
REMARK   13  A    between atoms: C25_25  and  C30_30 
ROOT
HETATM    1  S1  UNK     0      -0.180   2.199  -2.873  1.00  0.00     0.126 S 
HETATM    2  O10 UNK     0       1.050   1.846  -3.619  1.00  0.00    -0.236 OA
ENDROOT
BRANCH   1   3
HETATM    3  O11 UNK     0      -0.897   0.963  -2.487  1.00  0.00     0.000 OA
HETATM    4  H45 UNK     0      -0.628   0.183  -3.137  1.00  0.00     0.000 HD
ENDBRANCH   1   3
BRANCH   1   5
HETATM    5  C9  UNK     0       0.260   3.115  -1.386  1.00  0.00     0.047 A 
HETATM    6  C17 UNK     0      -0.180   4.460  -1.215  1.00  0.00     0.023 A 
HETATM    7  C22 UNK     0       0.170   5.181  -0.036  1.00  0.00     0.008 A 
HETATM    8  C23 UNK     0       0.957   4.558   0.976  1.00  0.00    -0.062 A 
HETATM    9  C21 UNK     0       1.399   3.215   0.804  1.00  0.00     0.008 A 
HETATM   10  C28 UNK     0       1.341   5.338   2.265  1.00  0.00     0.048 C 
HETATM   11  C16 UNK     0       1.051   2.494  -0.377  1.00  0.00     0.023 A 
ENDBRANCH   1   5
BRANCH   1  12
HETATM   12  N2  UNK     0      -1.188   3.123  -3.859  1.00  0.00    -0.225 NA
HETATM   13  H33 UNK     0      -0.866   3.078  -4.879  1.00  0.00     0.138 HD
BRANCH  12  14
HETATM   14  C5  UNK     0      -2.552   2.483  -3.698  1.00  0.00     0.161 C 
BRANCH  14  15
HETATM   15  C4  UNK     0      -3.339   3.161  -2.538  1.00  0.00     0.236 C 
HETATM   16  N3  UNK     0      -3.827   4.494  -2.634  1.00  0.00    -0.345 N 
HETATM   17  H34 UNK     0      -3.743   5.043  -3.548  1.00  0.00     0.163 HD
HETATM   18  O13 UNK     0      -3.500   2.535  -1.476  1.00  0.00    -0.272 OA
BRANCH  16  19
HETATM   19  C6  UNK     0      -4.468   5.119  -1.411  1.00  0.00     0.187 C 
BRANCH  19  20
HETATM   20  C8  UNK     0      -6.015   5.175  -1.599  1.00  0.00     0.281 C 
HETATM   21  O14 UNK     0      -6.538   4.560  -2.546  1.00  0.00    -0.263 OA
BRANCH  20  22
HETATM   22  O20 UNK     0      -6.825   5.905  -0.719  1.00  0.00    -0.325 OA
HETATM   23  C29 UNK     0      -6.953   5.570   0.698  1.00  0.00     0.213 C 
ENDBRANCH  20  22
ENDBRANCH  19  20
BRANCH  19  24
HETATM   24  C19 UNK     0      -3.911   6.588  -1.217  1.00  0.00     0.010 C 
HETATM   25  C26 UNK     0      -2.790   6.898  -2.278  1.00  0.00     0.012 C 
HETATM   26  C27 UNK     0      -3.306   6.769   0.227  1.00  0.00     0.012 C 
ENDBRANCH  19  24
ENDBRANCH  16  19
ENDBRANCH  14  15
BRANCH  14  27
HETATM   27  C24 UNK     0      -3.362   2.655  -5.037  1.00  0.00     0.032 C 
BRANCH  27  28
HETATM   28  C30 UNK     0      -2.491   3.246  -6.208  1.00  0.00     0.024 C 
BRANCH  28  29
HETATM   29  C25 UNK     0      -2.960   4.729  -6.453  1.00  0.00     0.169 C 
BRANCH  29  30
HETATM   30  N15 UNK     0      -4.236   5.011  -5.692  1.00  0.00    -0.108 NA
HETATM   31  C7  UNK     0      -4.660   6.354  -5.506  1.00  0.00     0.686 C 
HETATM   32  N18 UNK     0      -5.876   6.629  -4.827  1.00  0.00    -0.234 N 
HETATM   33  N12 UNK     0      -3.918   7.363  -5.970  1.00  0.00    -0.234 N 
HETATM   34  H39 UNK     0      -6.475   5.823  -4.454  1.00  0.00     0.174 HD
HETATM   35  H40 UNK     0      -6.195   7.641  -4.688  1.00  0.00     0.174 HD
HETATM   36  H35 UNK     0      -3.001   7.160  -6.483  1.00  0.00     0.174 HD
HETATM   37  H32 UNK     0      -4.240   8.373  -5.828  1.00  0.00     0.174 HD
ENDBRANCH  29  30
ENDBRANCH  28  29
ENDBRANCH  27  28
ENDBRANCH  14  27
ENDBRANCH  12  14
ENDBRANCH   1  12
TORSDOF 13
ENDMDL
MODEL 2
REMARK VINA RESULT:    -6.095      9.722     12.919
REMARK INTER + INTRA:         -13.349
REMARK INTER:                 -11.999
REMARK INTRA:                  -1.350
REMARK UNBOUND:                -2.800
REMARK  13 active torsions:
REMARK  status: ('A' for Active; 'I' for Inactive)
REMARK    1  A    between atoms: S1_1  and  O11_11 
REMARK    2  A    between atoms: S1_1  and  C9_9 
REMARK    3  A    between atoms: S1_1  and  N2_2 
REMARK    4  A    between atoms: N2_2  and  C5_5 
REMARK       I    between atoms: N3_3  and  C4_4 
REMARK    5  A    between atoms: N3_3  and  C6_6 
REMARK    6  A    between atoms: C4_4  and  C5_5 
REMARK    7  A    between atoms: C5_5  and  C24_24 
REMARK    8  A    between atoms: C6_6  and  C8_8 
REMARK    9  A    between atoms: C6_6  and  C19_19 
REMARK       I    between atoms: C7_7  and  N15_15 
REMARK       I    between atoms: C7_7  and  N18_18 
REMARK   10  A    between atoms: C8_8  and  O20_20 
REMARK   11  A    between atoms: N15_15  and  C25_25 
REMARK   12  A    between atoms: C24_24  and  C30_30 
REMARK   13  A    between atoms: C25_25  and  C30_30 
ROOT
HETATM    1  S1  UNK     0      -4.614   5.249   5.474  1.00  0.00     0.126 S 
HETATM    2  O10 UNK     0      -4.754   5.171   4.001  1.00  0.00    -0.236 OA
ENDROOT
BRANCH   1   3
HETATM    3  O11 UNK     0      -3.490   6.150   5.818  1.00  0.00     0.000 OA
HETATM    4  H45 UNK     0      -2.658   5.578   6.106  1.00  0.00     0.000 HD
ENDBRANCH   1   3
BRANCH   1   5
HETATM    5  C9  UNK     0      -6.133   5.899   6.190  1.00  0.00     0.047 A 
HETATM    6  C17 UNK     0      -7.394   5.350   5.817  1.00  0.00     0.023 A 
HETATM    7  C22 UNK     0      -8.595   5.868   6.386  1.00  0.00     0.008 A 
HETATM    8  C23 UNK     0      -8.536   6.932   7.334  1.00  0.00    -0.062 A 
HETATM    9  C21 UNK     0      -7.276   7.482   7.704  1.00  0.00     0.008 A 
HETATM   10  C28 UNK     0      -9.841   7.500   7.959  1.00  0.00     0.048 C 
HETATM   11  C16 UNK     0      -6.075   6.966   7.132  1.00  0.00     0.023 A 
ENDBRANCH   1   5
BRANCH   1  12
HETATM   12  N2  UNK     0      -4.282   3.714   6.087  1.00  0.00    -0.225 NA
HETATM   13  H33 UNK     0      -3.347   3.350   5.714  1.00  0.00     0.138 HD
BRANCH  12  14
HETATM   14  C5  UNK     0      -4.218   3.920   7.586  1.00  0.00     0.161 C 
BRANCH  14  15
HETATM   15  C4  UNK     0      -5.157   2.914   8.316  1.00  0.00     0.236 C 
HETATM   16  N3  UNK     0      -4.654   1.781   9.016  1.00  0.00    -0.345 N 
HETATM   17  H34 UNK     0      -3.600   1.637   9.137  1.00  0.00     0.163 HD
HETATM   18  O13 UNK     0      -6.387   3.076   8.239  1.00  0.00    -0.272 OA
BRANCH  16  19
HETATM   19  C6  UNK     0      -5.643   0.785   9.586  1.00  0.00     0.187 C 
BRANCH  19  20
HETATM   20  C8  UNK     0      -5.964   1.151  11.067  1.00  0.00     0.281 C 
HETATM   21  O14 UNK     0      -5.059   1.099  11.919  1.00  0.00    -0.263 OA
BRANCH  20  22
HETATM   22  O20 UNK     0      -7.254   1.537  11.453  1.00  0.00    -0.325 OA
HETATM   23  C29 UNK     0      -7.533   2.195  12.729  1.00  0.00     0.213 C 
ENDBRANCH  20  22
ENDBRANCH  19  20
BRANCH  19  24
HETATM   24  C19 UNK     0      -5.018  -0.668   9.529  1.00  0.00     0.010 C 
HETATM   25  C26 UNK     0      -4.621  -1.041   8.052  1.00  0.00     0.012 C 
HETATM   26  C27 UNK     0      -6.045  -1.738  10.065  1.00  0.00     0.012 C 
ENDBRANCH  19  24
ENDBRANCH  16  19
ENDBRANCH  14  15
BRANCH  14  27
HETATM   27  C24 UNK     0      -2.739   3.687   8.075  1.00  0.00     0.032 C 
BRANCH  27  28
HETATM   28  C30 UNK     0      -2.287   4.724   9.170  1.00  0.00     0.024 C 
BRANCH  28  29
HETATM   29  C25 UNK     0      -0.854   5.244   8.776  1.00  0.00     0.169 C 
BRANCH  29  30
HETATM   30  N15 UNK     0       0.198   4.222   9.146  1.00  0.00    -0.108 NA
HETATM   31  C7  UNK     0       0.658   4.142  10.487  1.00  0.00     0.686 C 
HETATM   32  N18 UNK     0       1.616   3.160  10.855  1.00  0.00    -0.234 N 
HETATM   33  N12 UNK     0       0.190   4.988  11.408  1.00  0.00    -0.234 N 
HETATM   34  H39 UNK     0       1.993   2.479  10.120  1.00  0.00     0.174 HD
HETATM   35  H40 UNK     0       1.961   3.102  11.865  1.00  0.00     0.174 HD
HETATM   36  H35 UNK     0      -0.532   5.729  11.136  1.00  0.00     0.174 HD
HETATM   37  H32 UNK     0       0.539   4.927  12.418  1.00  0.00     0.174 HD
ENDBRANCH  29  30
ENDBRANCH  28  29
ENDBRANCH  27  28
ENDBRANCH  14  27
ENDBRANCH  12  14
ENDBRANCH   1  12
TORSDOF 13
ENDMDL
MODEL 3
REMARK VINA RESULT:    -6.053     12.463     15.638
REMARK INTER + INTRA:         -13.277
REMARK INTER:                 -11.468
REMARK INTRA:                  -1.809
REMARK UNBOUND:                -2.800
REMARK  13 active torsions:
REMARK  status: ('A' for Active; 'I' for Inactive)
REMARK    1  A    between atoms: S1_1  and  O11_11 
REMARK    2  A    between atoms: S1_1  and  C9_9 
REMARK    3  A    between atoms: S1_1  and  N2_2 
REMARK    4  A    between atoms: N2_2  and  C5_5 
REMARK       I    between atoms: N3_3  and  C4_4 
REMARK    5  A    between atoms: N3_3  and  C6_6 
REMARK    6  A    between atoms: C4_4  and  C5_5 
REMARK    7  A    between atoms: C5_5  and  C24_24 
REMARK    8  A    between atoms: C6_6  and  C8_8 
REMARK    9  A    between atoms: C6_6  and  C19_19 
REMARK       I    between atoms: C7_7  and  N15_15 
REMARK       I    between atoms: C7_7  and  N18_18 
REMARK   10  A    between atoms: C8_8  and  O20_20 
REMARK   11  A    between atoms: N15_15  and  C25_25 
REMARK   12  A    between atoms: C24_24  and  C30_30 
REMARK   13  A    between atoms: C25_25  and  C30_30 
ROOT
HETATM    1  S1  UNK     0     -16.264  -2.670   3.659  1.00  0.00     0.126 S 
HETATM    2  O10 UNK     0     -17.530  -1.962   3.353  1.00  0.00    -0.236 OA
ENDROOT
BRANCH   1   3
HETATM    3  O11 UNK     0     -15.626  -2.054   4.844  1.00  0.00     0.000 OA
HETATM    4  H45 UNK     0     -15.767  -1.014   4.818  1.00  0.00     0.000 HD
ENDBRANCH   1   3
BRANCH   1   5
HETATM    5  C9  UNK     0     -16.614  -4.402   4.009  1.00  0.00     0.047 A 
HETATM    6  C17 UNK     0     -16.611  -5.362   2.956  1.00  0.00     0.023 A 
HETATM    7  C22 UNK     0     -16.888  -6.732   3.238  1.00  0.00     0.008 A 
HETATM    8  C23 UNK     0     -17.163  -7.146   4.574  1.00  0.00    -0.062 A 
HETATM    9  C21 UNK     0     -17.170  -6.185   5.626  1.00  0.00     0.008 A 
HETATM   10  C28 UNK     0     -17.465  -8.638   4.888  1.00  0.00     0.048 C 
HETATM   11  C16 UNK     0     -16.896  -4.814   5.344  1.00  0.00     0.023 A 
ENDBRANCH   1   5
BRANCH   1  12
HETATM   12  N2  UNK     0     -15.214  -2.533   2.348  1.00  0.00    -0.225 NA
HETATM   13  H33 UNK     0     -14.759  -3.476   2.126  1.00  0.00     0.138 HD
BRANCH  12  14
HETATM   14  C5  UNK     0     -16.103  -2.084   1.206  1.00  0.00     0.161 C 
BRANCH  14  15
HETATM   15  C4  UNK     0     -15.826  -0.593   0.853  1.00  0.00     0.236 C 
HETATM   16  N3  UNK     0     -15.194   0.296   1.767  1.00  0.00    -0.345 N 
HETATM   17  H34 UNK     0     -14.806  -0.061   2.698  1.00  0.00     0.163 HD
HETATM   18  O13 UNK     0     -16.218  -0.152  -0.242  1.00  0.00    -0.272 OA
BRANCH  16  19
HETATM   19  C6  UNK     0     -15.081   1.760   1.391  1.00  0.00     0.187 C 
BRANCH  19  20
HETATM   20  C8  UNK     0     -13.817   1.980   0.506  1.00  0.00     0.281 C 
HETATM   21  O14 UNK     0     -12.712   1.574   0.908  1.00  0.00    -0.263 OA
BRANCH  20  22
HETATM   22  O20 UNK     0     -13.906   2.626  -0.734  1.00  0.00    -0.325 OA
HETATM   23  C29 UNK     0     -15.128   3.282  -1.197  1.00  0.00     0.213 C 
ENDBRANCH  20  22
ENDBRANCH  19  20
BRANCH  19  24
HETATM   24  C19 UNK     0     -14.958   2.632   2.706  1.00  0.00     0.010 C 
HETATM   25  C26 UNK     0     -14.499   4.098   2.355  1.00  0.00     0.012 C 
HETATM   26  C27 UNK     0     -13.912   1.999   3.701  1.00  0.00     0.012 C 
ENDBRANCH  19  24
ENDBRANCH  16  19
ENDBRANCH  14  15
BRANCH  14  27
HETATM   27  C24 UNK     0     -15.805  -2.974  -0.058  1.00  0.00     0.032 C 
BRANCH  27  28
HETATM   28  C30 UNK     0     -14.829  -4.169   0.252  1.00  0.00     0.024 C 
BRANCH  28  29
HETATM   29  C25 UNK     0     -13.422  -3.811  -0.361  1.00  0.00     0.169 C 
BRANCH  29  30
HETATM   30  N15 UNK     0     -12.443  -3.462   0.737  1.00  0.00    -0.108 NA
HETATM   31  C7  UNK     0     -11.880  -2.158   0.788  1.00  0.00     0.686 C 
HETATM   32  N18 UNK     0     -10.991  -1.807   1.836  1.00  0.00    -0.234 N 
HETATM   33  N12 UNK     0     -12.188  -1.258  -0.150  1.00  0.00    -0.234 N 
HETATM   34  H39 UNK     0     -10.742  -2.525   2.591  1.00  0.00     0.174 HD
HETATM   35  H40 UNK     0     -10.568  -0.825   1.872  1.00  0.00     0.174 HD
HETATM   36  H35 UNK     0     -12.859  -1.519  -0.942  1.00  0.00     0.174 HD
HETATM   37  H32 UNK     0     -11.763  -0.277  -0.111  1.00  0.00     0.174 HD
ENDBRANCH  29  30
ENDBRANCH  28  29
ENDBRANCH  27  28
ENDBRANCH  14  27
ENDBRANCH  12  14
ENDBRANCH   1  12
TORSDOF 13
ENDMDL
MODEL 4
REMARK VINA RESULT:    -5.954      2.281      2.900
REMARK INTER + INTRA:         -13.105
REMARK INTER:                 -11.381
REMARK INTRA:                  -1.724
REMARK UNBOUND:                -2.800
REMARK  13 active torsions:
REMARK  status: ('A' for Active; 'I' for Inactive)
REMARK    1  A    between atoms: S1_1  and  O11_11 
REMARK    2  A    between atoms: S1_1  and  C9_9 
REMARK    3  A    between atoms: S1_1  and  N2_2 
REMARK    4  A    between atoms: N2_2  and  C5_5 
REMARK       I    between atoms: N3_3  and  C4_4 
REMARK    5  A    between atoms: N3_3  and  C6_6 
REMARK    6  A    between atoms: C4_4  and  C5_5 
REMARK    7  A    between atoms: C5_5  and  C24_24 
REMARK    8  A    between atoms: C6_6  and  C8_8 
REMARK    9  A    between atoms: C6_6  and  C19_19 
REMARK       I    between atoms: C7_7  and  N15_15 
REMARK       I    between atoms: C7_7  and  N18_18 
REMARK   10  A    between atoms: C8_8  and  O20_20 
REMARK   11  A    between atoms: N15_15  and  C25_25 
REMARK   12  A    between atoms: C24_24  and  C30_30 
REMARK   13  A    between atoms: C25_25  and  C30_30 
ROOT
HETATM    1  S1  UNK     0      -1.183   2.687  -2.423  1.00  0.00     0.126 S 
HETATM    2  O10 UNK     0      -0.258   2.329  -3.524  1.00  0.00    -0.236 OA
ENDROOT
BRANCH   1   3
HETATM    3  O11 UNK     0      -1.880   1.471  -1.946  1.00  0.00     0.000 OA
HETATM    4  H45 UNK     0      -2.436   1.054  -2.733  1.00  0.00     0.000 HD
ENDBRANCH   1   3
BRANCH   1   5
HETATM    5  C9  UNK     0      -0.248   3.404  -1.061  1.00  0.00     0.047 A 
HETATM    6  C17 UNK     0      -0.671   4.629  -0.467  1.00  0.00     0.023 A 
HETATM    7  C22 UNK     0       0.073   5.193   0.612  1.00  0.00     0.008 A 
HETATM    8  C23 UNK     0       1.236   4.531   1.102  1.00  0.00    -0.062 A 
HETATM    9  C21 UNK     0       1.660   3.308   0.506  1.00  0.00     0.008 A 
HETATM   10  C28 UNK     0       2.050   5.140   2.278  1.00  0.00     0.048 C 
HETATM   11  C16 UNK     0       0.918   2.746  -0.575  1.00  0.00     0.023 A 
ENDBRANCH   1   5
BRANCH   1  12
HETATM   12  N2  UNK     0      -2.333   3.781  -2.990  1.00  0.00    -0.225 NA
HETATM   13  H33 UNK     0      -2.207   3.955  -4.038  1.00  0.00     0.138 HD
BRANCH  12  14
HETATM   14  C5  UNK     0      -3.659   3.102  -2.715  1.00  0.00     0.161 C 
BRANCH  14  15
HETATM   15  C4  UNK     0      -4.269   3.617  -1.378  1.00  0.00     0.236 C 
HETATM   16  N3  UNK     0      -4.904   4.887  -1.276  1.00  0.00    -0.345 N 
HETATM   17  H34 UNK     0      -5.060   5.491  -2.146  1.00  0.00     0.163 HD
HETATM   18  O13 UNK     0      -4.150   2.920  -0.355  1.00  0.00    -0.272 OA
BRANCH  16  19
HETATM   19  C6  UNK     0      -5.354   5.363   0.089  1.00  0.00     0.187 C 
BRANCH  19  20
HETATM   20  C8  UNK     0      -6.803   5.931  -0.002  1.00  0.00     0.281 C 
HETATM   21  O14 UNK     0      -7.278   6.215  -1.116  1.00  0.00    -0.263 OA
BRANCH  20  22
HETATM   22  O20 UNK     0      -7.578   6.124   1.149  1.00  0.00    -0.325 OA
HETATM   23  C29 UNK     0      -7.319   5.419   2.403  1.00  0.00     0.213 C 
ENDBRANCH  20  22
ENDBRANCH  19  20
BRANCH  19  24
HETATM   24  C19 UNK     0      -4.378   6.501   0.598  1.00  0.00     0.010 C 
HETATM   25  C26 UNK     0      -3.468   7.016  -0.580  1.00  0.00     0.012 C 
HETATM   26  C27 UNK     0      -3.452   5.966   1.757  1.00  0.00     0.012 C 
ENDBRANCH  19  24
ENDBRANCH  16  19
ENDBRANCH  14  15
BRANCH  14  27
HETATM   27  C24 UNK     0      -4.655   3.423  -3.891  1.00  0.00     0.032 C 
BRANCH  27  28
HETATM   28  C30 UNK     0      -4.438   2.498  -5.146  1.00  0.00     0.024 C 
BRANCH  28  29
HETATM   29  C25 UNK     0      -5.767   2.520  -5.992  1.00  0.00     0.169 C 
BRANCH  29  30
HETATM   30  N15 UNK     0      -6.517   1.217  -5.828  1.00  0.00    -0.108 NA
HETATM   31  C7  UNK     0      -6.314   0.166  -6.762  1.00  0.00     0.686 C 
HETATM   32  N18 UNK     0      -6.983  -1.075  -6.595  1.00  0.00    -0.234 N 
HETATM   33  N12 UNK     0      -5.491   0.341  -7.799  1.00  0.00    -0.234 N 
HETATM   34  H39 UNK     0      -7.642  -1.220  -5.764  1.00  0.00     0.174 HD
HETATM   35  H40 UNK     0      -6.828  -1.865  -7.299  1.00  0.00     0.174 HD
HETATM   36  H35 UNK     0      -4.984   1.275  -7.928  1.00  0.00     0.174 HD
HETATM   37  H32 UNK     0      -5.340  -0.452  -8.502  1.00  0.00     0.174 HD
ENDBRANCH  29  30
ENDBRANCH  28  29
ENDBRANCH  27  28
ENDBRANCH  14  27
ENDBRANCH  12  14
ENDBRANCH   1  12
TORSDOF 13
ENDMDL
MODEL 5
REMARK VINA RESULT:    -5.916      1.858      2.641
REMARK INTER + INTRA:         -13.038
REMARK INTER:                 -10.846
REMARK INTRA:                  -2.192
REMARK UNBOUND:                -2.800
REMARK  13 active torsions:
REMARK  status: ('A' for Active; 'I' for Inactive)
REMARK    1  A    between atoms: S1_1  and  O11_11 
REMARK    2  A    between atoms: S1_1  and  C9_9 
REMARK    3  A    between atoms: S1_1  and  N2_2 
REMARK    4  A    between atoms: N2_2  and  C5_5 
REMARK       I    between atoms: N3_3  and  C4_4 
REMARK    5  A    between atoms: N3_3  and  C6_6 
REMARK    6  A    between atoms: C4_4  and  C5_5 
REMARK    7  A    between atoms: C5_5  and  C24_24 
REMARK    8  A    between atoms: C6_6  and  C8_8 
REMARK    9  A    between atoms: C6_6  and  C19_19 
REMARK       I    between atoms: C7_7  and  N15_15 
REMARK       I    between atoms: C7_7  and  N18_18 
REMARK   10  A    between atoms: C8_8  and  O20_20 
REMARK   11  A    between atoms: N15_15  and  C25_25 
REMARK   12  A    between atoms: C24_24  and  C30_30 
REMARK   13  A    between atoms: C25_25  and  C30_30 
ROOT
HETATM    1  S1  UNK     0      -1.722   3.279  -2.309  1.00  0.00     0.126 S 
HETATM    2  O10 UNK     0      -0.997   3.165  -3.595  1.00  0.00    -0.236 OA
ENDROOT
BRANCH   1   3
HETATM    3  O11 UNK     0      -2.325   1.971  -1.962  1.00  0.00     0.000 OA
HETATM    4  H45 UNK     0      -3.347   2.099  -1.760  1.00  0.00     0.000 HD
ENDBRANCH   1   3
BRANCH   1   5
HETATM    5  C9  UNK     0      -0.571   3.761  -1.010  1.00  0.00     0.047 A 
HETATM    6  C17 UNK     0      -0.768   4.977  -0.292  1.00  0.00     0.023 A 
HETATM    7  C22 UNK     0       0.146   5.355   0.736  1.00  0.00     0.008 A 
HETATM    8  C23 UNK     0       1.254   4.515   1.051  1.00  0.00    -0.062 A 
HETATM    9  C21 UNK     0       1.452   3.302   0.332  1.00  0.00     0.008 A 
HETATM   10  C28 UNK     0       2.252   4.921   2.172  1.00  0.00     0.048 C 
HETATM   11  C16 UNK     0       0.540   2.926  -0.698  1.00  0.00     0.023 A 
ENDBRANCH   1   5
BRANCH   1  12
HETATM   12  N2  UNK     0      -2.955   4.419  -2.459  1.00  0.00    -0.225 NA
HETATM   13  H33 UNK     0      -3.115   4.671  -3.486  1.00  0.00     0.138 HD
BRANCH  12  14
HETATM   14  C5  UNK     0      -4.172   3.727  -1.880  1.00  0.00     0.161 C 
BRANCH  14  15
HETATM   15  C4  UNK     0      -4.491   4.282  -0.460  1.00  0.00     0.236 C 
HETATM   16  N3  UNK     0      -5.288   5.444  -0.264  1.00  0.00    -0.345 N 
HETATM   17  H34 UNK     0      -5.769   5.924  -1.091  1.00  0.00     0.163 HD
HETATM   18  O13 UNK     0      -3.989   3.722   0.531  1.00  0.00    -0.272 OA
BRANCH  16  19
HETATM   19  C6  UNK     0      -5.440   5.988   1.142  1.00  0.00     0.187 C 
BRANCH  19  20
HETATM   20  C8  UNK     0      -6.947   5.997   1.543  1.00  0.00     0.281 C 
HETATM   21  O14 UNK     0      -7.728   6.773   0.962  1.00  0.00    -0.263 OA
BRANCH  20  22
HETATM   22  O20 UNK     0      -7.435   5.147   2.543  1.00  0.00    -0.325 OA
HETATM   23  C29 UNK     0      -7.060   5.285   3.949  1.00  0.00     0.213 C 
ENDBRANCH  20  22
ENDBRANCH  19  20
BRANCH  19  24
HETATM   24  C19 UNK     0      -4.874   7.465   1.200  1.00  0.00     0.010 C 
HETATM   25  C26 UNK     0      -3.445   7.534   0.543  1.00  0.00     0.012 C 
HETATM   26  C27 UNK     0      -4.772   7.967   2.691  1.00  0.00     0.012 C 
ENDBRANCH  19  24
ENDBRANCH  16  19
ENDBRANCH  14  15
BRANCH  14  27
HETATM   27  C24 UNK     0      -5.407   3.987  -2.821  1.00  0.00     0.032 C 
BRANCH  27  28
HETATM   28  C30 UNK     0      -5.257   5.296  -3.681  1.00  0.00     0.024 C 
BRANCH  28  29
HETATM   29  C25 UNK     0      -5.087   4.865  -5.186  1.00  0.00     0.169 C 
BRANCH  29  30
HETATM   30  N15 UNK     0      -3.687   4.346  -5.430  1.00  0.00    -0.108 NA
HETATM   31  C7  UNK     0      -2.715   5.197  -6.020  1.00  0.00     0.686 C 
HETATM   32  N18 UNK     0      -1.388   4.733  -6.218  1.00  0.00    -0.234 N 
HETATM   33  N12 UNK     0      -3.046   6.437  -6.390  1.00  0.00    -0.234 N 
HETATM   34  H39 UNK     0      -1.118   3.740  -5.922  1.00  0.00     0.174 HD
HETATM   35  H40 UNK     0      -0.657   5.376  -6.662  1.00  0.00     0.174 HD
HETATM   36  H35 UNK     0      -4.045   6.791  -6.241  1.00  0.00     0.174 HD
HETATM   37  H32 UNK     0      -2.312   7.077  -6.834  1.00  0.00     0.174 HD
ENDBRANCH  29  30
ENDBRANCH  28  29
ENDBRANCH  27  28
ENDBRANCH  14  27
ENDBRANCH  12  14
ENDBRANCH   1  12
TORSDOF 13
ENDMDL
MODEL 6
REMARK VINA RESULT:    -5.893      6.041      9.887
REMARK INTER + INTRA:         -12.999
REMARK INTER:                 -11.857
REMARK INTRA:                  -1.142
REMARK UNBOUND:                -2.800
REMARK  13 active torsions:
REMARK  status: ('A' for Active; 'I' for Inactive)
REMARK    1  A    between atoms: S1_1  and  O11_11 
REMARK    2  A    between atoms: S1_1  and  C9_9 
REMARK    3  A    between atoms: S1_1  and  N2_2 
REMARK    4  A    between atoms: N2_2  and  C5_5 
REMARK       I    between atoms: N3_3  and  C4_4 
REMARK    5  A    between atoms: N3_3  and  C6_6 
REMARK    6  A    between atoms: C4_4  and  C5_5 
REMARK    7  A    between atoms: C5_5  and  C24_24 
REMARK    8  A    between atoms: C6_6  and  C8_8 
REMARK    9  A    between atoms: C6_6  and  C19_19 
REMARK       I    between atoms: C7_7  and  N15_15 
REMARK       I    between atoms: C7_7  and  N18_18 
REMARK   10  A    between atoms: C8_8  and  O20_20 
REMARK   11  A    between atoms: N15_15  and  C25_25 
REMARK   12  A    between atoms: C24_24  and  C30_30 
REMARK   13  A    between atoms: C25_25  and  C30_30 
ROOT
HETATM    1  S1  UNK     0      -4.600   6.084   4.266  1.00  0.00     0.126 S 
HETATM    2  O10 UNK     0      -5.700   6.337   5.226  1.00  0.00    -0.236 OA
ENDROOT
BRANCH   1   3
HETATM    3  O11 UNK     0      -4.097   4.702   4.442  1.00  0.00     0.000 OA
HETATM    4  H45 UNK     0      -3.201   4.722   4.988  1.00  0.00     0.000 HD
ENDBRANCH   1   3
BRANCH   1   5
HETATM    5  C9  UNK     0      -5.214   6.279   2.584  1.00  0.00     0.047 A 
HETATM    6  C17 UNK     0      -4.306   6.516   1.512  1.00  0.00     0.023 A 
HETATM    7  C22 UNK     0      -4.796   6.670   0.181  1.00  0.00     0.008 A 
HETATM    8  C23 UNK     0      -6.195   6.581  -0.080  1.00  0.00    -0.062 A 
HETATM    9  C21 UNK     0      -7.103   6.347   0.993  1.00  0.00     0.008 A 
HETATM   10  C28 UNK     0      -6.735   6.747  -1.528  1.00  0.00     0.048 C 
HETATM   11  C16 UNK     0      -6.612   6.197   2.324  1.00  0.00     0.023 A 
ENDBRANCH   1   5
BRANCH   1  12
HETATM   12  N2  UNK     0      -3.337   7.160   4.563  1.00  0.00    -0.225 NA
HETATM   13  H33 UNK     0      -3.491   7.680   5.485  1.00  0.00     0.138 HD
BRANCH  12  14
HETATM   14  C5  UNK     0      -2.109   6.277   4.642  1.00  0.00     0.161 C 
BRANCH  14  15
HETATM   15  C4  UNK     0      -1.242   6.432   3.358  1.00  0.00     0.236 C 
HETATM   16  N3  UNK     0      -0.877   5.317   2.552  1.00  0.00    -0.345 N 
HETATM   17  H34 UNK     0      -1.267   4.342   2.759  1.00  0.00     0.163 HD
HETATM   18  O13 UNK     0      -0.810   7.559   3.057  1.00  0.00    -0.272 OA
BRANCH  16  19
HETATM   19  C6  UNK     0       0.076   5.541   1.395  1.00  0.00     0.187 C 
BRANCH  19  20
HETATM   20  C8  UNK     0      -0.651   5.240   0.049  1.00  0.00     0.281 C 
HETATM   21  O14 UNK     0      -1.682   4.544   0.055  1.00  0.00    -0.263 OA
BRANCH  20  22
HETATM   22  O20 UNK     0      -0.162   5.741  -1.165  1.00  0.00    -0.325 OA
HETATM   23  C29 UNK     0      -0.782   6.866  -1.861  1.00  0.00     0.213 C 
ENDBRANCH  20  22
ENDBRANCH  19  20
BRANCH  19  24
HETATM   24  C19 UNK     0       1.321   4.577   1.545  1.00  0.00     0.010 C 
HETATM   25  C26 UNK     0       1.238   3.401   0.501  1.00  0.00     0.012 C 
HETATM   26  C27 UNK     0       1.383   3.964   2.996  1.00  0.00     0.012 C 
ENDBRANCH  19  24
ENDBRANCH  16  19
ENDBRANCH  14  15
BRANCH  14  27
HETATM   27  C24 UNK     0      -1.252   6.699   5.893  1.00  0.00     0.032 C 
BRANCH  27  28
HETATM   28  C30 UNK     0      -2.069   6.653   7.238  1.00  0.00     0.024 C 
BRANCH  28  29
HETATM   29  C25 UNK     0      -1.841   5.236   7.888  1.00  0.00     0.169 C 
BRANCH  29  30
HETATM   30  N15 UNK     0      -0.708   5.292   8.889  1.00  0.00    -0.108 NA
HETATM   31  C7  UNK     0      -0.942   4.911  10.237  1.00  0.00     0.686 C 
HETATM   32  N18 UNK     0       0.124   4.921  11.175  1.00  0.00    -0.234 N 
HETATM   33  N12 UNK     0      -2.164   4.539  10.626  1.00  0.00    -0.234 N 
HETATM   34  H39 UNK     0       1.105   5.218  10.867  1.00  0.00     0.174 HD
HETATM   35  H40 UNK     0      -0.055   4.634  12.190  1.00  0.00     0.174 HD
HETATM   36  H35 UNK     0      -2.970   4.529   9.922  1.00  0.00     0.174 HD
HETATM   37  H32 UNK     0      -2.338   4.253  11.642  1.00  0.00     0.174 HD
ENDBRANCH  29  30
ENDBRANCH  28  29
ENDBRANCH  27  28
ENDBRANCH  14  27
ENDBRANCH  12  14
ENDBRANCH   1  12
TORSDOF 13
ENDMDL
MODEL 7
REMARK VINA RESULT:    -5.849      3.805      6.794
REMARK INTER + INTRA:         -12.923
REMARK INTER:                 -11.337
REMARK INTRA:                  -1.586
REMARK UNBOUND:                -2.800
REMARK  13 active torsions:
REMARK  status: ('A' for Active; 'I' for Inactive)
REMARK    1  A    between atoms: S1_1  and  O11_11 
REMARK    2  A    between atoms: S1_1  and  C9_9 
REMARK    3  A    between atoms: S1_1  and  N2_2 
REMARK    4  A    between atoms: N2_2  and  C5_5 
REMARK       I    between atoms: N3_3  and  C4_4 
REMARK    5  A    between atoms: N3_3  and  C6_6 
REMARK    6  A    between atoms: C4_4  and  C5_5 
REMARK    7  A    between atoms: C5_5  and  C24_24 
REMARK    8  A    between atoms: C6_6  and  C8_8 
REMARK    9  A    between atoms: C6_6  and  C19_19 
REMARK       I    between atoms: C7_7  and  N15_15 
REMARK       I    between atoms: C7_7  and  N18_18 
REMARK   10  A    between atoms: C8_8  and  O20_20 
REMARK   11  A    between atoms: N15_15  and  C25_25 
REMARK   12  A    between atoms: C24_24  and  C30_30 
REMARK   13  A    between atoms: C25_25  and  C30_30 
ROOT
HETATM    1  S1  UNK     0      -4.302   5.548   3.114  1.00  0.00     0.126 S 
HETATM    2  O10 UNK     0      -3.866   6.794   2.441  1.00  0.00    -0.236 OA
ENDROOT
BRANCH   1   3
HETATM    3  O11 UNK     0      -3.141   4.911   3.777  1.00  0.00     0.000 OA
HETATM    4  H45 UNK     0      -2.260   5.169   3.266  1.00  0.00     0.000 HD
ENDBRANCH   1   3
BRANCH   1   5
HETATM    5  C9  UNK     0      -5.548   5.940   4.354  1.00  0.00     0.047 A 
HETATM    6  C17 UNK     0      -5.296   6.949   5.330  1.00  0.00     0.023 A 
HETATM    7  C22 UNK     0      -6.286   7.256   6.310  1.00  0.00     0.008 A 
HETATM    8  C23 UNK     0      -7.530   6.560   6.313  1.00  0.00    -0.062 A 
HETATM    9  C21 UNK     0      -7.779   5.550   5.339  1.00  0.00     0.008 A 
HETATM   10  C28 UNK     0      -8.613   6.892   7.378  1.00  0.00     0.048 C 
HETATM   11  C16 UNK     0      -6.788   5.241   4.361  1.00  0.00     0.023 A 
ENDBRANCH   1   5
BRANCH   1  12
HETATM   12  N2  UNK     0      -4.924   4.479   1.969  1.00  0.00    -0.225 NA
HETATM   13  H33 UNK     0      -5.974   4.336   2.115  1.00  0.00     0.138 HD
BRANCH  12  14
HETATM   14  C5  UNK     0      -4.653   5.159   0.643  1.00  0.00     0.161 C 
BRANCH  14  15
HETATM   15  C4  UNK     0      -3.353   4.596  -0.004  1.00  0.00     0.236 C 
HETATM   16  N3  UNK     0      -2.088   5.223   0.174  1.00  0.00    -0.345 N 
HETATM   17  H34 UNK     0      -1.978   6.056   0.836  1.00  0.00     0.163 HD
HETATM   18  O13 UNK     0      -3.432   3.598  -0.742  1.00  0.00    -0.272 OA
BRANCH  16  19
HETATM   19  C6  UNK     0      -0.899   4.684  -0.595  1.00  0.00     0.187 C 
BRANCH  19  20
HETATM   20  C8  UNK     0       0.308   4.485   0.372  1.00  0.00     0.281 C 
HETATM   21  O14 UNK     0       1.026   3.476   0.252  1.00  0.00    -0.263 OA
BRANCH  20  22
HETATM   22  O20 UNK     0       0.597   5.425   1.370  1.00  0.00    -0.325 OA
HETATM   23  C29 UNK     0       0.357   5.167   2.789  1.00  0.00     0.213 C 
ENDBRANCH  20  22
ENDBRANCH  19  20
BRANCH  19  24
HETATM   24  C19 UNK     0      -0.497   5.711  -1.730  1.00  0.00     0.010 C 
HETATM   25  C26 UNK     0      -0.926   7.172  -1.330  1.00  0.00     0.012 C 
HETATM   26  C27 UNK     0      -1.190   5.335  -3.095  1.00  0.00     0.012 C 
ENDBRANCH  19  24
ENDBRANCH  16  19
ENDBRANCH  14  15
BRANCH  14  27
HETATM   27  C24 UNK     0      -5.864   4.892  -0.328  1.00  0.00     0.032 C 
BRANCH  27  28
HETATM   28  C30 UNK     0      -6.178   6.118  -1.264  1.00  0.00     0.024 C 
BRANCH  28  29
HETATM   29  C25 UNK     0      -5.970   5.649  -2.754  1.00  0.00     0.169 C 
BRANCH  29  30
HETATM   30  N15 UNK     0      -4.708   6.258  -3.326  1.00  0.00    -0.108 NA
HETATM   31  C7  UNK     0      -4.799   7.384  -4.187  1.00  0.00     0.686 C 
HETATM   32  N18 UNK     0      -3.620   7.987  -4.698  1.00  0.00    -0.234 N 
HETATM   33  N12 UNK     0      -5.995   7.880  -4.518  1.00  0.00    -0.234 N 
HETATM   34  H39 UNK     0      -2.660   7.593  -4.434  1.00  0.00     0.174 HD
HETATM   35  H40 UNK     0      -3.691   8.835  -5.346  1.00  0.00     0.174 HD
HETATM   36  H35 UNK     0      -6.886   7.428  -4.134  1.00  0.00     0.174 HD
HETATM   37  H32 UNK     0      -6.061   8.728  -5.167  1.00  0.00     0.174 HD
ENDBRANCH  29  30
ENDBRANCH  28  29
ENDBRANCH  27  28
ENDBRANCH  14  27
ENDBRANCH  12  14
ENDBRANCH   1  12
TORSDOF 13
ENDMDL
MODEL 8
REMARK VINA RESULT:    -5.757      2.663      3.818
REMARK INTER + INTRA:         -12.765
REMARK INTER:                 -10.346
REMARK INTRA:                  -2.418
REMARK UNBOUND:                -2.800
REMARK  13 active torsions:
REMARK  status: ('A' for Active; 'I' for Inactive)
REMARK    1  A    between atoms: S1_1  and  O11_11 
REMARK    2  A    between atoms: S1_1  and  C9_9 
REMARK    3  A    between atoms: S1_1  and  N2_2 
REMARK    4  A    between atoms: N2_2  and  C5_5 
REMARK       I    between atoms: N3_3  and  C4_4 
REMARK    5  A    between atoms: N3_3  and  C6_6 
REMARK    6  A    between atoms: C4_4  and  C5_5 
REMARK    7  A    between atoms: C5_5  and  C24_24 
REMARK    8  A    between atoms: C6_6  and  C8_8 
REMARK    9  A    between atoms: C6_6  and  C19_19 
REMARK       I    between atoms: C7_7  and  N15_15 
REMARK       I    between atoms: C7_7  and  N18_18 
REMARK   10  A    between atoms: C8_8  and  O20_20 
REMARK   11  A    between atoms: N15_15  and  C25_25 
REMARK   12  A    between atoms: C24_24  and  C30_30 
REMARK   13  A    between atoms: C25_25  and  C30_30 
ROOT
HETATM    1  S1  UNK     0      -1.308   5.785  -1.566  1.00  0.00     0.126 S 
HETATM    2  O10 UNK     0      -0.657   6.893  -2.301  1.00  0.00    -0.236 OA
ENDROOT
BRANCH   1   3
HETATM    3  O11 UNK     0      -1.373   4.586  -2.432  1.00  0.00     0.000 OA
HETATM    4  H45 UNK     0      -1.778   4.848  -3.365  1.00  0.00     0.000 HD
ENDBRANCH   1   3
BRANCH   1   5
HETATM    5  C9  UNK     0      -0.350   5.397  -0.091  1.00  0.00     0.047 A 
HETATM    6  C17 UNK     0       0.591   4.327  -0.108  1.00  0.00     0.023 A 
HETATM    7  C22 UNK     0       1.348   4.023   1.063  1.00  0.00     0.008 A 
HETATM    8  C23 UNK     0       1.169   4.793   2.249  1.00  0.00    -0.062 A 
HETATM    9  C21 UNK     0       0.226   5.860   2.266  1.00  0.00     0.008 A 
HETATM   10  C28 UNK     0       1.992   4.468   3.527  1.00  0.00     0.048 C 
HETATM   11  C16 UNK     0      -0.533   6.162   1.097  1.00  0.00     0.023 A 
ENDBRANCH   1   5
BRANCH   1  12
HETATM   12  N2  UNK     0      -2.879   6.234  -1.149  1.00  0.00    -0.225 NA
HETATM   13  H33 UNK     0      -3.394   6.642  -1.994  1.00  0.00     0.138 HD
BRANCH  12  14
HETATM   14  C5  UNK     0      -3.526   4.942  -0.697  1.00  0.00     0.161 C 
BRANCH  14  15
HETATM   15  C4  UNK     0      -3.976   5.048   0.791  1.00  0.00     0.236 C 
HETATM   16  N3  UNK     0      -4.422   6.273   1.361  1.00  0.00    -0.345 N 
HETATM   17  H34 UNK     0      -4.546   7.145   0.754  1.00  0.00     0.163 HD
HETATM   18  O13 UNK     0      -3.892   4.041   1.516  1.00  0.00    -0.272 OA
BRANCH  16  19
HETATM   19  C6  UNK     0      -4.716   6.315   2.846  1.00  0.00     0.187 C 
BRANCH  19  20
HETATM   20  C8  UNK     0      -6.176   5.835   3.108  1.00  0.00     0.281 C 
HETATM   21  O14 UNK     0      -6.388   4.970   3.976  1.00  0.00    -0.263 OA
BRANCH  20  22
HETATM   22  O20 UNK     0      -7.252   6.364   2.382  1.00  0.00    -0.325 OA
HETATM   23  C29 UNK     0      -7.594   5.911   1.035  1.00  0.00     0.213 C 
ENDBRANCH  20  22
ENDBRANCH  19  20
BRANCH  19  24
HETATM   24  C19 UNK     0      -4.549   7.797   3.375  1.00  0.00     0.010 C 
HETATM   25  C26 UNK     0      -4.123   8.757   2.201  1.00  0.00     0.012 C 
HETATM   26  C27 UNK     0      -3.456   7.867   4.509  1.00  0.00     0.012 C 
ENDBRANCH  19  24
ENDBRANCH  16  19
ENDBRANCH  14  15
BRANCH  14  27
HETATM   27  C24 UNK     0      -4.789   4.658  -1.594  1.00  0.00     0.032 C 
BRANCH  27  28
HETATM   28  C30 UNK     0      -5.371   5.960  -2.260  1.00  0.00     0.024 C 
BRANCH  28  29
HETATM   29  C25 UNK     0      -5.287   5.779  -3.822  1.00  0.00     0.169 C 
BRANCH  29  30
HETATM   30  N15 UNK     0      -3.865   5.484  -4.242  1.00  0.00    -0.108 NA
HETATM   31  C7  UNK     0      -3.081   6.508  -4.837  1.00  0.00     0.686 C 
HETATM   32  N18 UNK     0      -1.732   6.253  -5.200  1.00  0.00    -0.234 N 
HETATM   33  N12 UNK     0      -3.609   7.715  -5.057  1.00  0.00    -0.234 N 
HETATM   34  H39 UNK     0      -1.304   5.288  -5.025  1.00  0.00     0.174 HD
HETATM   35  H40 UNK     0      -1.144   7.026  -5.647  1.00  0.00     0.174 HD
HETATM   36  H35 UNK     0      -4.626   7.911  -4.784  1.00  0.00     0.174 HD
HETATM   37  H32 UNK     0      -3.017   8.485  -5.506  1.00  0.00     0.174 HD
ENDBRANCH  29  30
ENDBRANCH  28  29
ENDBRANCH  27  28
ENDBRANCH  14  27
ENDBRANCH  12  14
ENDBRANCH   1  12
TORSDOF 13
ENDMDL
MODEL 9
REMARK VINA RESULT:    -5.718      3.368      6.375
REMARK INTER + INTRA:         -12.696
REMARK INTER:                 -10.008
REMARK INTRA:                  -2.689
REMARK UNBOUND:                -2.800
REMARK  13 active torsions:
REMARK  status: ('A' for Active; 'I' for Inactive)
REMARK    1  A    between atoms: S1_1  and  O11_11 
REMARK    2  A    between atoms: S1_1  and  C9_9 
REMARK    3  A    between atoms: S1_1  and  N2_2 
REMARK    4  A    between atoms: N2_2  and  C5_5 
REMARK       I    between atoms: N3_3  and  C4_4 
REMARK    5  A    between atoms: N3_3  and  C6_6 
REMARK    6  A    between atoms: C4_4  and  C5_5 
REMARK    7  A    between atoms: C5_5  and  C24_24 
REMARK    8  A    between atoms: C6_6  and  C8_8 
REMARK    9  A    between atoms: C6_6  and  C19_19 
REMARK       I    between atoms: C7_7  and  N15_15 
REMARK       I    between atoms: C7_7  and  N18_18 
REMARK   10  A    between atoms: C8_8  and  O20_20 
REMARK   11  A    between atoms: N15_15  and  C25_25 
REMARK   12  A    between atoms: C24_24  and  C30_30 
REMARK   13  A    between atoms: C25_25  and  C30_30 
ROOT
HETATM    1  S1  UNK     0      -5.481   3.001  -2.091  1.00  0.00     0.126 S 
HETATM    2  O10 UNK     0      -4.127   2.483  -2.399  1.00  0.00    -0.236 OA
ENDROOT
BRANCH   1   3
HETATM    3  O11 UNK     0      -6.291   1.929  -1.468  1.00  0.00     0.000 OA
HETATM    4  H45 UNK     0      -7.299   2.051  -1.736  1.00  0.00     0.000 HD
ENDBRANCH   1   3
BRANCH   1   5
HETATM    5  C9  UNK     0      -5.349   4.384  -0.945  1.00  0.00     0.047 A 
HETATM    6  C17 UNK     0      -4.205   4.514  -0.106  1.00  0.00     0.023 A 
HETATM    7  C22 UNK     0      -4.105   5.611   0.800  1.00  0.00     0.008 A 
HETATM    8  C23 UNK     0      -5.146   6.583   0.864  1.00  0.00    -0.062 A 
HETATM    9  C21 UNK     0      -6.291   6.451   0.027  1.00  0.00     0.008 A 
HETATM   10  C28 UNK     0      -5.042   7.781   1.848  1.00  0.00     0.048 C 
HETATM   11  C16 UNK     0      -6.392   5.352  -0.877  1.00  0.00     0.023 A 
ENDBRANCH   1   5
BRANCH   1  12
HETATM   12  N2  UNK     0      -6.234   3.486  -3.519  1.00  0.00    -0.225 NA
HETATM   13  H33 UNK     0      -7.107   4.067  -3.309  1.00  0.00     0.138 HD
BRANCH  12  14
HETATM   14  C5  UNK     0      -5.188   4.324  -4.224  1.00  0.00     0.161 C 
BRANCH  14  15
HETATM   15  C4  UNK     0      -4.847   3.714  -5.616  1.00  0.00     0.236 C 
HETATM   16  N3  UNK     0      -4.330   4.504  -6.681  1.00  0.00    -0.345 N 
HETATM   17  H34 UNK     0      -4.074   5.531  -6.526  1.00  0.00     0.163 HD
HETATM   18  O13 UNK     0      -5.084   2.510  -5.819  1.00  0.00    -0.272 OA
BRANCH  16  19
HETATM   19  C6  UNK     0      -4.149   3.857  -8.039  1.00  0.00     0.187 C 
BRANCH  19  20
HETATM   20  C8  UNK     0      -2.630   3.655  -8.328  1.00  0.00     0.281 C 
HETATM   21  O14 UNK     0      -2.216   2.530  -8.658  1.00  0.00    -0.263 OA
BRANCH  20  22
HETATM   22  O20 UNK     0      -1.726   4.721  -8.224  1.00  0.00    -0.325 OA
HETATM   23  C29 UNK     0      -0.911   5.177  -9.348  1.00  0.00     0.213 C 
ENDBRANCH  20  22
ENDBRANCH  19  20
BRANCH  19  24
HETATM   24  C19 UNK     0      -4.775   4.789  -9.154  1.00  0.00     0.010 C 
HETATM   25  C26 UNK     0      -5.957   5.643  -8.560  1.00  0.00     0.012 C 
HETATM   26  C27 UNK     0      -5.324   3.931 -10.357  1.00  0.00     0.012 C 
ENDBRANCH  19  24
ENDBRANCH  16  19
ENDBRANCH  14  15
BRANCH  14  27
HETATM   27  C24 UNK     0      -5.747   5.782  -4.426  1.00  0.00     0.032 C 
BRANCH  27  28
HETATM   28  C30 UNK     0      -4.751   6.894  -3.926  1.00  0.00     0.024 C 
BRANCH  28  29
HETATM   29  C25 UNK     0      -3.456   6.173  -3.393  1.00  0.00     0.169 C 
BRANCH  29  30
HETATM   30  N15 UNK     0      -2.370   6.195  -4.447  1.00  0.00    -0.108 NA
HETATM   31  C7  UNK     0      -1.490   5.087  -4.571  1.00  0.00     0.686 C 
HETATM   32  N18 UNK     0      -0.493   5.079  -5.581  1.00  0.00    -0.234 N 
HETATM   33  N12 UNK     0      -1.598   4.047  -3.739  1.00  0.00    -0.234 N 
HETATM   34  H39 UNK     0      -0.403   5.910  -6.251  1.00  0.00     0.174 HD
HETATM   35  H40 UNK     0       0.169   4.244  -5.673  1.00  0.00     0.174 HD
HETATM   36  H35 UNK     0      -2.349   4.049  -2.976  1.00  0.00     0.174 HD
HETATM   37  H32 UNK     0      -0.934   3.214  -3.834  1.00  0.00     0.174 HD
ENDBRANCH  29  30
ENDBRANCH  28  29
ENDBRANCH  27  28
ENDBRANCH  14  27
ENDBRANCH  12  14
ENDBRANCH   1  12
TORSDOF 13
ENDMDL
