MODEL 1
REMARK VINA RESULT:    -6.446      0.000      0.000
REMARK INTER + INTRA:         -11.487
REMARK INTER:                 -10.591
REMARK INTRA:                  -0.895
REMARK UNBOUND:                -0.895
REMARK  12 active torsions:
REMARK  status: ('A' for Active; 'I' for Inactive)
REMARK    1  A    between atoms: C1_1  and  C2_2 
REMARK    2  A    between atoms: C1_1  and  C14_14 
REMARK    3  A    between atoms: C2_2  and  C3_3 
REMARK    4  A    between atoms: C3_3  and  O4_4 
REMARK    5  A    between atoms: O4_4  and  C5_5 
REMARK    6  A    between atoms: C8_8  and  C11_11 
REMARK    7  A    between atoms: C11_11  and  N12_12 
REMARK    8  A    between atoms: C14_14  and  C15_15 
REMARK    9  A    between atoms: C15_15  and  O16_16 
REMARK   10  A    between atoms: O16_16  and  C17_17 
REMARK   11  A    between atoms: C20_20  and  C23_23 
REMARK   12  A    between atoms: C23_23  and  N24_24 
ROOT
HETATM    1  C1  UNK     0      -2.440   6.263   3.449  1.00  0.00     0.004 C 
ENDROOT
BRANCH   1   2
HETATM    2  C2  UNK     0      -3.812   6.608   4.152  1.00  0.00     0.027 C 
BRANCH   2   3
HETATM    3  C3  UNK     0      -3.508   6.820   5.688  1.00  0.00     0.175 C 
BRANCH   3   4
HETATM    4  O4  UNK     0      -3.522   5.537   6.402  1.00  0.00    -0.351 OA
BRANCH   4   5
HETATM    5  C5  UNK     0      -2.588   5.263   7.418  1.00  0.00     0.068 A 
HETATM    6  C6  UNK     0      -1.272   5.826   7.352  1.00  0.00     0.037 A 
HETATM    7  C7  UNK     0      -0.321   5.545   8.389  1.00  0.00     0.018 A 
HETATM    8  C8  UNK     0      -0.686   4.702   9.488  1.00  0.00     0.009 A 
HETATM    9  C9  UNK     0      -2.000   4.137   9.553  1.00  0.00     0.018 A 
HETATM   10  C10 UNK     0      -2.948   4.418   8.517  1.00  0.00     0.037 A 
BRANCH   8  11
HETATM   11  C11 UNK     0       0.316   4.405  10.587  1.00  0.00     0.123 C 
HETATM   12  N13 UNK     0       1.091   3.310  10.503  1.00  0.00    -0.284 NA
HETATM   13  H38 UNK     0       1.800   3.096  11.275  1.00  0.00     0.188 HD
BRANCH  11  14
HETATM   14  N12 UNK     0       0.434   5.281  11.706  1.00  0.00    -0.384 N 
HETATM   15  H37 UNK     0       1.401   5.540  12.083  1.00  0.00     0.157 HD
HETATM   16  H36 UNK     0      -0.444   5.681  12.167  1.00  0.00     0.157 HD
ENDBRANCH  11  14
ENDBRANCH   8  11
ENDBRANCH   4   5
ENDBRANCH   3   4
ENDBRANCH   2   3
ENDBRANCH   1   2
BRANCH   1  17
HETATM   17  C14 UNK     0      -1.318   7.312   3.832  1.00  0.00     0.027 C 
BRANCH  17  18
HETATM   18  C15 UNK     0      -0.314   7.405   2.613  1.00  0.00     0.175 C 
BRANCH  18  19
HETATM   19  O16 UNK     0       0.599   6.252   2.571  1.00  0.00    -0.351 OA
BRANCH  19  20
HETATM   20  C17 UNK     0       0.535   5.304   1.527  1.00  0.00     0.068 A 
HETATM   21  C18 UNK     0       1.397   4.156   1.525  1.00  0.00     0.037 A 
HETATM   22  C19 UNK     0       1.323   3.201   0.459  1.00  0.00     0.018 A 
HETATM   23  C20 UNK     0       0.389   3.391  -0.608  1.00  0.00     0.009 A 
HETATM   24  C21 UNK     0      -0.472   4.535  -0.608  1.00  0.00     0.018 A 
HETATM   25  C22 UNK     0      -0.399   5.489   0.457  1.00  0.00     0.037 A 
BRANCH  23  26
HETATM   26  C23 UNK     0       0.313   2.378  -1.741  1.00  0.00     0.123 C 
HETATM   27  N25 UNK     0       0.965   2.616  -2.891  1.00  0.00    -0.284 NA
HETATM   28  H49 UNK     0       0.915   1.907  -3.690  1.00  0.00     0.188 HD
BRANCH  26  29
HETATM   29  N24 UNK     0      -0.449   1.182  -1.585  1.00  0.00    -0.384 N 
HETATM   30  H48 UNK     0      -0.530   0.721  -0.623  1.00  0.00     0.157 HD
HETATM   31  H47 UNK     0      -0.937   0.745  -2.431  1.00  0.00     0.157 HD
ENDBRANCH  26  29
ENDBRANCH  23  26
ENDBRANCH  19  20
ENDBRANCH  18  19
ENDBRANCH  17  18
ENDBRANCH   1  17
TORSDOF 12
ENDMDL
