MODEL 1
REMARK VINA RESULT:    -6.446      0.000      0.000
REMARK INTER + INTRA:         -11.487
REMARK INTER:                 -10.591
REMARK INTRA:                  -0.895
REMARK UNBOUND:                -0.895
REMARK  12 active torsions:
REMARK  status: ('A' for Active; 'I' for Inactive)
REMARK    1  A    between atoms: C1_1  and  C2_2 
REMARK    2  A    between atoms: C1_1  and  C14_14 
REMARK    3  A    between atoms: C2_2  and  C3_3 
REMARK    4  A    between atoms: C3_3  and  O4_4 
REMARK    5  A    between atoms: O4_4  and  C5_5 
REMARK    6  A    between atoms: C8_8  and  C11_11 
REMARK    7  A    between atoms: C11_11  and  N12_12 
REMARK    8  A    between atoms: C14_14  and  C15_15 
REMARK    9  A    between atoms: C15_15  and  O16_16 
REMARK   10  A    between atoms: O16_16  and  C17_17 
REMARK   11  A    between atoms: C20_20  and  C23_23 
REMARK   12  A    between atoms: C23_23  and  N24_24 
ROOT
HETATM    1  C1  UNK     0      -2.440   6.263   3.449  1.00  0.00     0.004 C 
ENDROOT
BRANCH   1   2
HETATM    2  C2  UNK     0      -3.812   6.608   4.152  1.00  0.00     0.027 C 
BRANCH   2   3
HETATM    3  C3  UNK     0      -3.508   6.820   5.688  1.00  0.00     0.175 C 
BRANCH   3   4
HETATM    4  O4  UNK     0      -3.522   5.537   6.402  1.00  0.00    -0.351 OA
BRANCH   4   5
HETATM    5  C5  UNK     0      -2.588   5.263   7.418  1.00  0.00     0.068 A 
HETATM    6  C6  UNK     0      -1.272   5.826   7.352  1.00  0.00     0.037 A 
HETATM    7  C7  UNK     0      -0.321   5.545   8.389  1.00  0.00     0.018 A 
HETATM    8  C8  UNK     0      -0.686   4.702   9.488  1.00  0.00     0.009 A 
HETATM    9  C9  UNK     0      -2.000   4.137   9.553  1.00  0.00     0.018 A 
HETATM   10  C10 UNK     0      -2.948   4.418   8.517  1.00  0.00     0.037 A 
BRANCH   8  11
HETATM   11  C11 UNK     0       0.316   4.405  10.587  1.00  0.00     0.123 C 
HETATM   12  N13 UNK     0       1.091   3.310  10.503  1.00  0.00    -0.284 NA
HETATM   13  H38 UNK     0       1.800   3.096  11.275  1.00  0.00     0.188 HD
BRANCH  11  14
HETATM   14  N12 UNK     0       0.434   5.281  11.706  1.00  0.00    -0.384 N 
HETATM   15  H37 UNK     0       1.401   5.540  12.083  1.00  0.00     0.157 HD
HETATM   16  H36 UNK     0      -0.444   5.681  12.167  1.00  0.00     0.157 HD
ENDBRANCH  11  14
ENDBRANCH   8  11
ENDBRANCH   4   5
ENDBRANCH   3   4
ENDBRANCH   2   3
ENDBRANCH   1   2
BRANCH   1  17
HETATM   17  C14 UNK     0      -1.318   7.312   3.832  1.00  0.00     0.027 C 
BRANCH  17  18
HETATM   18  C15 UNK     0      -0.314   7.405   2.613  1.00  0.00     0.175 C 
BRANCH  18  19
HETATM   19  O16 UNK     0       0.599   6.252   2.571  1.00  0.00    -0.351 OA
BRANCH  19  20
HETATM   20  C17 UNK     0       0.535   5.304   1.527  1.00  0.00     0.068 A 
HETATM   21  C18 UNK     0       1.397   4.156   1.525  1.00  0.00     0.037 A 
HETATM   22  C19 UNK     0       1.323   3.201   0.459  1.00  0.00     0.018 A 
HETATM   23  C20 UNK     0       0.389   3.391  -0.608  1.00  0.00     0.009 A 
HETATM   24  C21 UNK     0      -0.472   4.535  -0.608  1.00  0.00     0.018 A 
HETATM   25  C22 UNK     0      -0.399   5.489   0.457  1.00  0.00     0.037 A 
BRANCH  23  26
HETATM   26  C23 UNK     0       0.313   2.378  -1.741  1.00  0.00     0.123 C 
HETATM   27  N25 UNK     0       0.965   2.616  -2.891  1.00  0.00    -0.284 NA
HETATM   28  H49 UNK     0       0.915   1.907  -3.690  1.00  0.00     0.188 HD
BRANCH  26  29
HETATM   29  N24 UNK     0      -0.449   1.182  -1.585  1.00  0.00    -0.384 N 
HETATM   30  H48 UNK     0      -0.530   0.721  -0.623  1.00  0.00     0.157 HD
HETATM   31  H47 UNK     0      -0.937   0.745  -2.431  1.00  0.00     0.157 HD
ENDBRANCH  26  29
ENDBRANCH  23  26
ENDBRANCH  19  20
ENDBRANCH  18  19
ENDBRANCH  17  18
ENDBRANCH   1  17
TORSDOF 12
ENDMDL
MODEL 2
REMARK VINA RESULT:    -6.260      6.153      9.232
REMARK INTER + INTRA:         -11.182
REMARK INTER:                  -8.570
REMARK INTRA:                  -2.612
REMARK UNBOUND:                -0.895
REMARK  12 active torsions:
REMARK  status: ('A' for Active; 'I' for Inactive)
REMARK    1  A    between atoms: C1_1  and  C2_2 
REMARK    2  A    between atoms: C1_1  and  C14_14 
REMARK    3  A    between atoms: C2_2  and  C3_3 
REMARK    4  A    between atoms: C3_3  and  O4_4 
REMARK    5  A    between atoms: O4_4  and  C5_5 
REMARK    6  A    between atoms: C8_8  and  C11_11 
REMARK    7  A    between atoms: C11_11  and  N12_12 
REMARK    8  A    between atoms: C14_14  and  C15_15 
REMARK    9  A    between atoms: C15_15  and  O16_16 
REMARK   10  A    between atoms: O16_16  and  C17_17 
REMARK   11  A    between atoms: C20_20  and  C23_23 
REMARK   12  A    between atoms: C23_23  and  N24_24 
ROOT
HETATM    1  C1  UNK     0      -3.949   8.983   4.369  1.00  0.00     0.004 C 
ENDROOT
BRANCH   1   2
HETATM    2  C2  UNK     0      -4.650   7.990   3.360  1.00  0.00     0.027 C 
BRANCH   2   3
HETATM    3  C3  UNK     0      -4.362   8.525   1.902  1.00  0.00     0.175 C 
BRANCH   3   4
HETATM    4  O4  UNK     0      -3.889   9.915   1.943  1.00  0.00    -0.351 OA
BRANCH   4   5
HETATM    5  C5  UNK     0      -2.713  10.302   1.274  1.00  0.00     0.068 A 
HETATM    6  C6  UNK     0      -1.973   9.340   0.512  1.00  0.00     0.037 A 
HETATM    7  C7  UNK     0      -0.775   9.736  -0.169  1.00  0.00     0.018 A 
HETATM    8  C8  UNK     0      -0.317  11.091  -0.087  1.00  0.00     0.009 A 
HETATM    9  C9  UNK     0      -1.054  12.052   0.677  1.00  0.00     0.018 A 
HETATM   10  C10 UNK     0      -2.250  11.655   1.357  1.00  0.00     0.037 A 
BRANCH   8  11
HETATM   11  C11 UNK     0       0.949  11.513  -0.808  1.00  0.00     0.123 C 
HETATM   12  N13 UNK     0       1.877  12.234  -0.156  1.00  0.00    -0.284 NA
HETATM   13  H38 UNK     0       2.772  12.534  -0.659  1.00  0.00     0.188 HD
BRANCH  11  14
HETATM   14  N12 UNK     0       1.153  11.149  -2.171  1.00  0.00    -0.384 N 
HETATM   15  H37 UNK     0       1.030  11.878  -2.944  1.00  0.00     0.157 HD
HETATM   16  H36 UNK     0       1.429  10.146  -2.422  1.00  0.00     0.157 HD
ENDBRANCH  11  14
ENDBRANCH   8  11
ENDBRANCH   4   5
ENDBRANCH   3   4
ENDBRANCH   2   3
ENDBRANCH   1   2
BRANCH   1  17
HETATM   17  C14 UNK     0      -3.217   8.198   5.533  1.00  0.00     0.027 C 
BRANCH  17  18
HETATM   18  C15 UNK     0      -1.675   8.538   5.442  1.00  0.00     0.175 C 
BRANCH  18  19
HETATM   19  O16 UNK     0      -1.302   9.019   4.103  1.00  0.00    -0.351 OA
BRANCH  19  20
HETATM   20  C17 UNK     0      -0.237   9.929   3.922  1.00  0.00     0.068 A 
HETATM   21  C18 UNK     0       0.925   9.557   3.164  1.00  0.00     0.037 A 
HETATM   22  C19 UNK     0       1.999  10.489   2.988  1.00  0.00     0.018 A 
HETATM   23  C20 UNK     0       1.918  11.794   3.569  1.00  0.00     0.009 A 
HETATM   24  C21 UNK     0       0.760  12.167   4.326  1.00  0.00     0.018 A 
HETATM   25  C22 UNK     0      -0.315  11.237   4.501  1.00  0.00     0.037 A 
BRANCH  23  26
HETATM   26  C23 UNK     0       3.060  12.781   3.384  1.00  0.00     0.123 C 
HETATM   27  N25 UNK     0       3.253  13.752   4.293  1.00  0.00    -0.284 NA
HETATM   28  H49 UNK     0       4.054  14.449   4.168  1.00  0.00     0.188 HD
BRANCH  26  29
HETATM   29  N24 UNK     0       3.920  12.681   2.251  1.00  0.00    -0.384 N 
HETATM   30  H48 UNK     0       3.956  11.773   1.686  1.00  0.00     0.157 HD
HETATM   31  H47 UNK     0       4.531  13.512   1.968  1.00  0.00     0.157 HD
ENDBRANCH  26  29
ENDBRANCH  23  26
ENDBRANCH  19  20
ENDBRANCH  18  19
ENDBRANCH  17  18
ENDBRANCH   1  17
TORSDOF 12
ENDMDL
MODEL 3
REMARK VINA RESULT:    -6.247      4.534      6.782
REMARK INTER + INTRA:         -11.160
REMARK INTER:                  -8.208
REMARK INTRA:                  -2.952
REMARK UNBOUND:                -0.895
REMARK  12 active torsions:
REMARK  status: ('A' for Active; 'I' for Inactive)
REMARK    1  A    between atoms: C1_1  and  C2_2 
REMARK    2  A    between atoms: C1_1  and  C14_14 
REMARK    3  A    between atoms: C2_2  and  C3_3 
REMARK    4  A    between atoms: C3_3  and  O4_4 
REMARK    5  A    between atoms: O4_4  and  C5_5 
REMARK    6  A    between atoms: C8_8  and  C11_11 
REMARK    7  A    between atoms: C11_11  and  N12_12 
REMARK    8  A    between atoms: C14_14  and  C15_15 
REMARK    9  A    between atoms: C15_15  and  O16_16 
REMARK   10  A    between atoms: O16_16  and  C17_17 
REMARK   11  A    between atoms: C20_20  and  C23_23 
REMARK   12  A    between atoms: C23_23  and  N24_24 
ROOT
HETATM    1  C1  UNK     0      -2.224  11.696  -0.145  1.00  0.00     0.004 C 
ENDROOT
BRANCH   1   2
HETATM    2  C2  UNK     0      -0.773  11.091  -0.300  1.00  0.00     0.027 C 
BRANCH   2   3
HETATM    3  C3  UNK     0      -0.766   9.698   0.445  1.00  0.00     0.175 C 
BRANCH   3   4
HETATM    4  O4  UNK     0      -0.170   9.827   1.781  1.00  0.00    -0.351 OA
BRANCH   4   5
HETATM    5  C5  UNK     0      -0.637   9.054   2.861  1.00  0.00     0.068 A 
HETATM    6  C6  UNK     0      -0.831   9.661   4.145  1.00  0.00     0.037 A 
HETATM    7  C7  UNK     0      -1.308   8.872   5.244  1.00  0.00     0.018 A 
HETATM    8  C8  UNK     0      -1.588   7.479   5.059  1.00  0.00     0.009 A 
HETATM    9  C9  UNK     0      -1.391   6.872   3.777  1.00  0.00     0.018 A 
HETATM   10  C10 UNK     0      -0.915   7.660   2.681  1.00  0.00     0.037 A 
BRANCH   8  11
HETATM   11  C11 UNK     0      -2.093   6.643   6.219  1.00  0.00     0.123 C 
HETATM   12  N13 UNK     0      -2.821   5.539   5.977  1.00  0.00    -0.284 NA
HETATM   13  H38 UNK     0      -3.180   4.946   6.792  1.00  0.00     0.188 HD
BRANCH  11  14
HETATM   14  N12 UNK     0      -1.800   7.027   7.561  1.00  0.00    -0.384 N 
HETATM   15  H37 UNK     0      -2.415   7.746   8.058  1.00  0.00     0.157 HD
HETATM   16  H36 UNK     0      -0.964   6.596   8.070  1.00  0.00     0.157 HD
ENDBRANCH  11  14
ENDBRANCH   8  11
ENDBRANCH   4   5
ENDBRANCH   3   4
ENDBRANCH   2   3
ENDBRANCH   1   2
BRANCH   1  17
HETATM   17  C14 UNK     0      -2.411  12.387   1.267  1.00  0.00     0.027 C 
BRANCH  17  18
HETATM   18  C15 UNK     0      -3.885  12.085   1.755  1.00  0.00     0.175 C 
BRANCH  18  19
HETATM   19  O16 UNK     0      -3.896  11.354   3.032  1.00  0.00    -0.351 OA
BRANCH  19  20
HETATM   20  C17 UNK     0      -4.274   9.995   3.095  1.00  0.00     0.068 A 
HETATM   21  C18 UNK     0      -4.731   9.417   4.327  1.00  0.00     0.037 A 
HETATM   22  C19 UNK     0      -5.111   8.036   4.379  1.00  0.00     0.018 A 
HETATM   23  C20 UNK     0      -5.035   7.228   3.200  1.00  0.00     0.009 A 
HETATM   24  C21 UNK     0      -4.580   7.803   1.969  1.00  0.00     0.018 A 
HETATM   25  C22 UNK     0      -4.201   9.182   1.917  1.00  0.00     0.037 A 
BRANCH  23  26
HETATM   26  C23 UNK     0      -5.437   5.763   3.256  1.00  0.00     0.123 C 
HETATM   27  N25 UNK     0      -4.516   4.833   3.563  1.00  0.00    -0.284 NA
HETATM   28  H49 UNK     0      -4.793   3.800   3.604  1.00  0.00     0.188 HD
BRANCH  26  29
HETATM   29  N24 UNK     0      -6.782   5.374   2.984  1.00  0.00    -0.384 N 
HETATM   30  H48 UNK     0      -7.026   4.340   2.864  1.00  0.00     0.157 HD
HETATM   31  H47 UNK     0      -7.546   6.118   2.898  1.00  0.00     0.157 HD
ENDBRANCH  26  29
ENDBRANCH  23  26
ENDBRANCH  19  20
ENDBRANCH  18  19
ENDBRANCH  17  18
ENDBRANCH   1  17
TORSDOF 12
ENDMDL
MODEL 4
REMARK VINA RESULT:    -6.125      7.310     10.665
REMARK INTER + INTRA:         -10.959
REMARK INTER:                  -8.227
REMARK INTRA:                  -2.732
REMARK UNBOUND:                -0.895
REMARK  12 active torsions:
REMARK  status: ('A' for Active; 'I' for Inactive)
REMARK    1  A    between atoms: C1_1  and  C2_2 
REMARK    2  A    between atoms: C1_1  and  C14_14 
REMARK    3  A    between atoms: C2_2  and  C3_3 
REMARK    4  A    between atoms: C3_3  and  O4_4 
REMARK    5  A    between atoms: O4_4  and  C5_5 
REMARK    6  A    between atoms: C8_8  and  C11_11 
REMARK    7  A    between atoms: C11_11  and  N12_12 
REMARK    8  A    between atoms: C14_14  and  C15_15 
REMARK    9  A    between atoms: C15_15  and  O16_16 
REMARK   10  A    between atoms: O16_16  and  C17_17 
REMARK   11  A    between atoms: C20_20  and  C23_23 
REMARK   12  A    between atoms: C23_23  and  N24_24 
ROOT
HETATM    1  C1  UNK     0      -2.387   5.397  -7.731  1.00  0.00     0.004 C 
ENDROOT
BRANCH   1   2
HETATM    2  C2  UNK     0      -3.561   6.343  -8.204  1.00  0.00     0.027 C 
BRANCH   2   3
HETATM    3  C3  UNK     0      -4.918   5.638  -7.806  1.00  0.00     0.175 C 
BRANCH   3   4
HETATM    4  O4  UNK     0      -5.489   6.255  -6.602  1.00  0.00    -0.351 OA
BRANCH   4   5
HETATM    5  C5  UNK     0      -5.566   5.543  -5.390  1.00  0.00     0.068 A 
HETATM    6  C6  UNK     0      -5.802   4.130  -5.402  1.00  0.00     0.037 A 
HETATM    7  C7  UNK     0      -5.880   3.408  -4.165  1.00  0.00     0.018 A 
HETATM    8  C8  UNK     0      -5.722   4.098  -2.920  1.00  0.00     0.009 A 
HETATM    9  C9  UNK     0      -5.489   5.511  -2.907  1.00  0.00     0.018 A 
HETATM   10  C10 UNK     0      -5.413   6.231  -4.142  1.00  0.00     0.037 A 
BRANCH   8  11
HETATM   11  C11 UNK     0      -5.802   3.336  -1.611  1.00  0.00     0.123 C 
HETATM   12  N13 UNK     0      -6.224   2.060  -1.608  1.00  0.00    -0.284 NA
HETATM   13  H38 UNK     0      -6.282   1.518  -0.687  1.00  0.00     0.188 HD
BRANCH  11  14
HETATM   14  N12 UNK     0      -5.434   3.972  -0.388  1.00  0.00    -0.384 N 
HETATM   15  H37 UNK     0      -4.665   3.550   0.224  1.00  0.00     0.157 HD
HETATM   16  H36 UNK     0      -5.928   4.871  -0.084  1.00  0.00     0.157 HD
ENDBRANCH  11  14
ENDBRANCH   8  11
ENDBRANCH   4   5
ENDBRANCH   3   4
ENDBRANCH   2   3
ENDBRANCH   1   2
BRANCH   1  17
HETATM   17  C14 UNK     0      -2.842   3.881  -7.714  1.00  0.00     0.027 C 
BRANCH  17  18
HETATM   18  C15 UNK     0      -1.831   3.088  -6.792  1.00  0.00     0.175 C 
BRANCH  18  19
HETATM   19  O16 UNK     0      -2.467   2.642  -5.544  1.00  0.00    -0.351 OA
BRANCH  19  20
HETATM   20  C17 UNK     0      -2.260   3.330  -4.329  1.00  0.00     0.068 A 
HETATM   21  C18 UNK     0      -1.956   4.733  -4.322  1.00  0.00     0.037 A 
HETATM   22  C19 UNK     0      -1.746   5.420  -3.082  1.00  0.00     0.018 A 
HETATM   23  C20 UNK     0      -1.839   4.708  -1.845  1.00  0.00     0.009 A 
HETATM   24  C21 UNK     0      -2.142   3.308  -1.848  1.00  0.00     0.018 A 
HETATM   25  C22 UNK     0      -2.352   2.621  -3.087  1.00  0.00     0.037 A 
BRANCH  23  26
HETATM   26  C23 UNK     0      -1.614   5.437  -0.529  1.00  0.00     0.123 C 
HETATM   27  N25 UNK     0      -0.926   6.592  -0.519  1.00  0.00    -0.284 NA
HETATM   28  H49 UNK     0      -0.765   7.109   0.404  1.00  0.00     0.188 HD
BRANCH  26  29
HETATM   29  N24 UNK     0      -2.127   4.900   0.688  1.00  0.00    -0.384 N 
HETATM   30  H48 UNK     0      -3.184   4.843   0.843  1.00  0.00     0.157 HD
HETATM   31  H47 UNK     0      -1.455   4.554   1.446  1.00  0.00     0.157 HD
ENDBRANCH  26  29
ENDBRANCH  23  26
ENDBRANCH  19  20
ENDBRANCH  18  19
ENDBRANCH  17  18
ENDBRANCH   1  17
TORSDOF 12
ENDMDL
MODEL 5
REMARK VINA RESULT:    -6.111     16.515     18.588
REMARK INTER + INTRA:         -10.936
REMARK INTER:                  -9.734
REMARK INTRA:                  -1.201
REMARK UNBOUND:                -0.895
REMARK  12 active torsions:
REMARK  status: ('A' for Active; 'I' for Inactive)
REMARK    1  A    between atoms: C1_1  and  C2_2 
REMARK    2  A    between atoms: C1_1  and  C14_14 
REMARK    3  A    between atoms: C2_2  and  C3_3 
REMARK    4  A    between atoms: C3_3  and  O4_4 
REMARK    5  A    between atoms: O4_4  and  C5_5 
REMARK    6  A    between atoms: C8_8  and  C11_11 
REMARK    7  A    between atoms: C11_11  and  N12_12 
REMARK    8  A    between atoms: C14_14  and  C15_15 
REMARK    9  A    between atoms: C15_15  and  O16_16 
REMARK   10  A    between atoms: O16_16  and  C17_17 
REMARK   11  A    between atoms: C20_20  and  C23_23 
REMARK   12  A    between atoms: C23_23  and  N24_24 
ROOT
HETATM    1  C1  UNK     0     -16.779  -5.055   4.013  1.00  0.00     0.004 C 
ENDROOT
BRANCH   1   2
HETATM    2  C2  UNK     0     -16.925  -4.093   5.257  1.00  0.00     0.027 C 
BRANCH   2   3
HETATM    3  C3  UNK     0     -16.224  -2.729   4.877  1.00  0.00     0.175 C 
BRANCH   3   4
HETATM    4  O4  UNK     0     -16.689  -2.253   3.568  1.00  0.00    -0.351 OA
BRANCH   4   5
HETATM    5  C5  UNK     0     -15.777  -1.817   2.588  1.00  0.00     0.068 A 
HETATM    6  C6  UNK     0     -14.440  -1.463   2.963  1.00  0.00     0.037 A 
HETATM    7  C7  UNK     0     -13.512  -1.019   1.963  1.00  0.00     0.018 A 
HETATM    8  C8  UNK     0     -13.922  -0.928   0.593  1.00  0.00     0.009 A 
HETATM    9  C9  UNK     0     -15.259  -1.278   0.220  1.00  0.00     0.018 A 
HETATM   10  C10 UNK     0     -16.184  -1.721   1.219  1.00  0.00     0.037 A 
BRANCH   8  11
HETATM   11  C11 UNK     0     -12.942  -0.460  -0.466  1.00  0.00     0.123 C 
HETATM   12  N13 UNK     0     -11.689  -0.127  -0.114  1.00  0.00    -0.284 NA
HETATM   13  H38 UNK     0     -10.994   0.204  -0.857  1.00  0.00     0.188 HD
BRANCH  11  14
HETATM   14  N12 UNK     0     -13.350  -0.372  -1.830  1.00  0.00    -0.384 N 
HETATM   15  H37 UNK     0     -12.676   0.012  -2.566  1.00  0.00     0.157 HD
HETATM   16  H36 UNK     0     -14.331  -0.689  -2.117  1.00  0.00     0.157 HD
ENDBRANCH  11  14
ENDBRANCH   8  11
ENDBRANCH   4   5
ENDBRANCH   3   4
ENDBRANCH   2   3
ENDBRANCH   1   2
BRANCH   1  17
HETATM   17  C14 UNK     0     -17.352  -6.496   4.330  1.00  0.00     0.027 C 
BRANCH  17  18
HETATM   18  C15 UNK     0     -17.021  -7.425   3.094  1.00  0.00     0.175 C 
BRANCH  18  19
HETATM   19  O16 UNK     0     -17.848  -7.091   1.925  1.00  0.00    -0.351 OA
BRANCH  19  20
HETATM   20  C17 UNK     0     -17.268  -6.865   0.657  1.00  0.00     0.068 A 
HETATM   21  C18 UNK     0     -17.514  -7.766  -0.434  1.00  0.00     0.037 A 
HETATM   22  C19 UNK     0     -16.919  -7.526  -1.715  1.00  0.00     0.018 A 
HETATM   23  C20 UNK     0     -16.075  -6.387  -1.910  1.00  0.00     0.009 A 
HETATM   24  C21 UNK     0     -15.828  -5.487  -0.824  1.00  0.00     0.018 A 
HETATM   25  C22 UNK     0     -16.423  -5.725   0.456  1.00  0.00     0.037 A 
BRANCH  23  26
HETATM   26  C23 UNK     0     -15.442  -6.135  -3.270  1.00  0.00     0.123 C 
HETATM   27  N25 UNK     0     -16.211  -6.137  -4.372  1.00  0.00    -0.284 NA
HETATM   28  H49 UNK     0     -15.771  -5.960  -5.331  1.00  0.00     0.188 HD
BRANCH  26  29
HETATM   29  N24 UNK     0     -14.039  -5.899  -3.378  1.00  0.00    -0.384 N 
HETATM   30  H48 UNK     0     -13.661  -4.899  -3.347  1.00  0.00     0.157 HD
HETATM   31  H47 UNK     0     -13.366  -6.723  -3.490  1.00  0.00     0.157 HD
ENDBRANCH  26  29
ENDBRANCH  23  26
ENDBRANCH  19  20
ENDBRANCH  18  19
ENDBRANCH  17  18
ENDBRANCH   1  17
TORSDOF 12
ENDMDL
MODEL 6
REMARK VINA RESULT:    -6.102      4.880      6.869
REMARK INTER + INTRA:         -10.921
REMARK INTER:                  -8.172
REMARK INTRA:                  -2.749
REMARK UNBOUND:                -0.895
REMARK  12 active torsions:
REMARK  status: ('A' for Active; 'I' for Inactive)
REMARK    1  A    between atoms: C1_1  and  C2_2 
REMARK    2  A    between atoms: C1_1  and  C14_14 
REMARK    3  A    between atoms: C2_2  and  C3_3 
REMARK    4  A    between atoms: C3_3  and  O4_4 
REMARK    5  A    between atoms: O4_4  and  C5_5 
REMARK    6  A    between atoms: C8_8  and  C11_11 
REMARK    7  A    between atoms: C11_11  and  N12_12 
REMARK    8  A    between atoms: C14_14  and  C15_15 
REMARK    9  A    between atoms: C15_15  and  O16_16 
REMARK   10  A    between atoms: O16_16  and  C17_17 
REMARK   11  A    between atoms: C20_20  and  C23_23 
REMARK   12  A    between atoms: C23_23  and  N24_24 
ROOT
HETATM    1  C1  UNK     0      -3.183  13.518   3.782  1.00  0.00     0.004 C 
ENDROOT
BRANCH   1   2
HETATM    2  C2  UNK     0      -4.262  13.467   2.629  1.00  0.00     0.027 C 
BRANCH   2   3
HETATM    3  C3  UNK     0      -5.148  12.182   2.875  1.00  0.00     0.175 C 
BRANCH   3   4
HETATM    4  O4  UNK     0      -4.541  11.322   3.899  1.00  0.00    -0.351 OA
BRANCH   4   5
HETATM    5  C5  UNK     0      -4.606   9.919   3.798  1.00  0.00     0.068 A 
HETATM    6  C6  UNK     0      -4.290   9.275   2.558  1.00  0.00     0.037 A 
HETATM    7  C7  UNK     0      -4.356   7.846   2.459  1.00  0.00     0.018 A 
HETATM    8  C8  UNK     0      -4.738   7.063   3.597  1.00  0.00     0.009 A 
HETATM    9  C9  UNK     0      -5.056   7.708   4.835  1.00  0.00     0.018 A 
HETATM   10  C10 UNK     0      -4.991   9.135   4.933  1.00  0.00     0.037 A 
BRANCH   8  11
HETATM   11  C11 UNK     0      -4.807   5.552   3.495  1.00  0.00     0.123 C 
HETATM   12  N13 UNK     0      -3.893   4.799   4.130  1.00  0.00    -0.284 NA
HETATM   13  H38 UNK     0      -3.937   3.732   4.061  1.00  0.00     0.188 HD
BRANCH  11  14
HETATM   14  N12 UNK     0      -5.835   4.932   2.726  1.00  0.00    -0.384 N 
HETATM   15  H37 UNK     0      -6.845   4.936   3.080  1.00  0.00     0.157 HD
HETATM   16  H36 UNK     0      -5.598   4.463   1.794  1.00  0.00     0.157 HD
ENDBRANCH  11  14
ENDBRANCH   8  11
ENDBRANCH   4   5
ENDBRANCH   3   4
ENDBRANCH   2   3
ENDBRANCH   1   2
BRANCH   1  17
HETATM   17  C14 UNK     0      -1.792  14.049   3.244  1.00  0.00     0.027 C 
BRANCH  17  18
HETATM   18  C15 UNK     0      -0.834  12.800   3.084  1.00  0.00     0.175 C 
BRANCH  18  19
HETATM   19  O16 UNK     0      -1.035  11.818   4.161  1.00  0.00    -0.351 OA
BRANCH  19  20
HETATM   20  C17 UNK     0      -0.966  10.431   3.910  1.00  0.00     0.068 A 
HETATM   21  C18 UNK     0      -1.273   9.482   4.943  1.00  0.00     0.037 A 
HETATM   22  C19 UNK     0      -1.198   8.076   4.676  1.00  0.00     0.018 A 
HETATM   23  C20 UNK     0      -0.816   7.613   3.376  1.00  0.00     0.009 A 
HETATM   24  C21 UNK     0      -0.510   8.558   2.344  1.00  0.00     0.018 A 
HETATM   25  C22 UNK     0      -0.585   9.963   2.610  1.00  0.00     0.037 A 
BRANCH  23  26
HETATM   26  C23 UNK     0      -0.735   6.121   3.095  1.00  0.00     0.123 C 
HETATM   27  N25 UNK     0       0.068   5.346   3.843  1.00  0.00    -0.284 NA
HETATM   28  H49 UNK     0       0.129   4.296   3.649  1.00  0.00     0.188 HD
BRANCH  26  29
HETATM   29  N24 UNK     0      -1.505   5.545   2.041  1.00  0.00    -0.384 N 
HETATM   30  H48 UNK     0      -1.740   6.124   1.173  1.00  0.00     0.157 HD
HETATM   31  H47 UNK     0      -1.848   4.535   2.120  1.00  0.00     0.157 HD
ENDBRANCH  26  29
ENDBRANCH  23  26
ENDBRANCH  19  20
ENDBRANCH  18  19
ENDBRANCH  17  18
ENDBRANCH   1  17
TORSDOF 12
ENDMDL
MODEL 7
REMARK VINA RESULT:    -6.085      3.022      4.046
REMARK INTER + INTRA:         -10.893
REMARK INTER:                  -9.557
REMARK INTRA:                  -1.336
REMARK UNBOUND:                -0.895
REMARK  12 active torsions:
REMARK  status: ('A' for Active; 'I' for Inactive)
REMARK    1  A    between atoms: C1_1  and  C2_2 
REMARK    2  A    between atoms: C1_1  and  C14_14 
REMARK    3  A    between atoms: C2_2  and  C3_3 
REMARK    4  A    between atoms: C3_3  and  O4_4 
REMARK    5  A    between atoms: O4_4  and  C5_5 
REMARK    6  A    between atoms: C8_8  and  C11_11 
REMARK    7  A    between atoms: C11_11  and  N12_12 
REMARK    8  A    between atoms: C14_14  and  C15_15 
REMARK    9  A    between atoms: C15_15  and  O16_16 
REMARK   10  A    between atoms: O16_16  and  C17_17 
REMARK   11  A    between atoms: C20_20  and  C23_23 
REMARK   12  A    between atoms: C23_23  and  N24_24 
ROOT
HETATM    1  C1  UNK     0      -7.092   6.636   6.240  1.00  0.00     0.004 C 
ENDROOT
BRANCH   1   2
HETATM    2  C2  UNK     0      -6.873   5.084   6.039  1.00  0.00     0.027 C 
BRANCH   2   3
HETATM    3  C3  UNK     0      -5.319   4.815   6.141  1.00  0.00     0.175 C 
BRANCH   3   4
HETATM    4  O4  UNK     0      -4.987   4.164   7.414  1.00  0.00    -0.351 OA
BRANCH   4   5
HETATM    5  C5  UNK     0      -3.738   4.372   8.031  1.00  0.00     0.068 A 
HETATM    6  C6  UNK     0      -2.706   5.083   7.336  1.00  0.00     0.037 A 
HETATM    7  C7  UNK     0      -1.435   5.293   7.967  1.00  0.00     0.018 A 
HETATM    8  C8  UNK     0      -1.197   4.794   9.288  1.00  0.00     0.009 A 
HETATM    9  C9  UNK     0      -2.228   4.082   9.981  1.00  0.00     0.018 A 
HETATM   10  C10 UNK     0      -3.496   3.871   9.351  1.00  0.00     0.037 A 
BRANCH   8  11
HETATM   11  C11 UNK     0       0.145   5.017   9.958  1.00  0.00     0.123 C 
HETATM   12  N13 UNK     0       1.223   5.305   9.209  1.00  0.00    -0.284 NA
HETATM   13  H38 UNK     0       2.172   5.463   9.676  1.00  0.00     0.188 HD
BRANCH  11  14
HETATM   14  N12 UNK     0       0.264   4.919  11.375  1.00  0.00    -0.384 N 
HETATM   15  H37 UNK     0       0.268   5.805  11.975  1.00  0.00     0.157 HD
HETATM   16  H36 UNK     0       0.349   3.959  11.839  1.00  0.00     0.157 HD
ENDBRANCH  11  14
ENDBRANCH   8  11
ENDBRANCH   4   5
ENDBRANCH   3   4
ENDBRANCH   2   3
ENDBRANCH   1   2
BRANCH   1  17
HETATM   17  C14 UNK     0      -5.759   7.347   6.714  1.00  0.00     0.027 C 
BRANCH  17  18
HETATM   18  C15 UNK     0      -5.375   8.420   5.617  1.00  0.00     0.175 C 
BRANCH  18  19
HETATM   19  O16 UNK     0      -4.061   8.140   5.018  1.00  0.00    -0.351 OA
BRANCH  19  20
HETATM   20  C17 UNK     0      -3.935   7.302   3.889  1.00  0.00     0.068 A 
HETATM   21  C18 UNK     0      -2.790   6.449   3.732  1.00  0.00     0.037 A 
HETATM   22  C19 UNK     0      -2.673   5.604   2.580  1.00  0.00     0.018 A 
HETATM   23  C20 UNK     0      -3.699   5.608   1.582  1.00  0.00     0.009 A 
HETATM   24  C21 UNK     0      -4.842   6.456   1.737  1.00  0.00     0.018 A 
HETATM   25  C22 UNK     0      -4.960   7.301   2.887  1.00  0.00     0.037 A 
BRANCH  23  26
HETATM   26  C23 UNK     0      -3.572   4.712   0.360  1.00  0.00     0.123 C 
HETATM   27  N25 UNK     0      -2.773   5.081  -0.655  1.00  0.00    -0.284 NA
HETATM   28  H49 UNK     0      -2.680   4.455  -1.518  1.00  0.00     0.188 HD
BRANCH  26  29
HETATM   29  N24 UNK     0      -4.299   3.487   0.288  1.00  0.00    -0.384 N 
HETATM   30  H48 UNK     0      -4.647   3.018   1.184  1.00  0.00     0.157 HD
HETATM   31  H47 UNK     0      -4.496   3.036  -0.663  1.00  0.00     0.157 HD
ENDBRANCH  26  29
ENDBRANCH  23  26
ENDBRANCH  19  20
ENDBRANCH  18  19
ENDBRANCH  17  18
ENDBRANCH   1  17
TORSDOF 12
ENDMDL
MODEL 8
REMARK VINA RESULT:    -6.084      7.379     11.042
REMARK INTER + INTRA:         -10.892
REMARK INTER:                  -8.146
REMARK INTRA:                  -2.746
REMARK UNBOUND:                -0.895
REMARK  12 active torsions:
REMARK  status: ('A' for Active; 'I' for Inactive)
REMARK    1  A    between atoms: C1_1  and  C2_2 
REMARK    2  A    between atoms: C1_1  and  C14_14 
REMARK    3  A    between atoms: C2_2  and  C3_3 
REMARK    4  A    between atoms: C3_3  and  O4_4 
REMARK    5  A    between atoms: O4_4  and  C5_5 
REMARK    6  A    between atoms: C8_8  and  C11_11 
REMARK    7  A    between atoms: C11_11  and  N12_12 
REMARK    8  A    between atoms: C14_14  and  C15_15 
REMARK    9  A    between atoms: C15_15  and  O16_16 
REMARK   10  A    between atoms: O16_16  and  C17_17 
REMARK   11  A    between atoms: C20_20  and  C23_23 
REMARK   12  A    between atoms: C23_23  and  N24_24 
ROOT
HETATM    1  C1  UNK     0      -4.743   5.077  -8.132  1.00  0.00     0.004 C 
ENDROOT
BRANCH   1   2
HETATM    2  C2  UNK     0      -3.483   5.433  -9.017  1.00  0.00     0.027 C 
BRANCH   2   3
HETATM    3  C3  UNK     0      -2.274   4.571  -8.477  1.00  0.00     0.175 C 
BRANCH   3   4
HETATM    4  O4  UNK     0      -1.621   5.244  -7.347  1.00  0.00    -0.351 OA
BRANCH   4   5
HETATM    5  C5  UNK     0      -1.705   4.718  -6.043  1.00  0.00     0.068 A 
HETATM    6  C6  UNK     0      -1.345   5.531  -4.919  1.00  0.00     0.037 A 
HETATM    7  C7  UNK     0      -1.431   4.994  -3.592  1.00  0.00     0.018 A 
HETATM    8  C8  UNK     0      -1.876   3.647  -3.390  1.00  0.00     0.009 A 
HETATM    9  C9  UNK     0      -2.232   2.834  -4.514  1.00  0.00     0.018 A 
HETATM   10  C10 UNK     0      -2.145   3.371  -5.838  1.00  0.00     0.037 A 
BRANCH   8  11
HETATM   11  C11 UNK     0      -1.970   3.077  -1.988  1.00  0.00     0.123 C 
HETATM   12  N13 UNK     0      -2.365   1.805  -1.811  1.00  0.00    -0.284 NA
HETATM   13  H38 UNK     0      -2.433   1.398  -0.824  1.00  0.00     0.188 HD
BRANCH  11  14
HETATM   14  N12 UNK     0      -1.642   3.888  -0.862  1.00  0.00    -0.384 N 
HETATM   15  H37 UNK     0      -2.359   4.580  -0.474  1.00  0.00     0.157 HD
HETATM   16  H36 UNK     0      -0.678   3.804  -0.404  1.00  0.00     0.157 HD
ENDBRANCH  11  14
ENDBRANCH   8  11
ENDBRANCH   4   5
ENDBRANCH   3   4
ENDBRANCH   2   3
ENDBRANCH   1   2
BRANCH   1  17
HETATM   17  C14 UNK     0      -5.327   6.364  -7.420  1.00  0.00     0.027 C 
BRANCH  17  18
HETATM   18  C15 UNK     0      -6.131   5.882  -6.146  1.00  0.00     0.175 C 
BRANCH  18  19
HETATM   19  O16 UNK     0      -5.419   4.818  -5.423  1.00  0.00    -0.351 OA
BRANCH  19  20
HETATM   20  C17 UNK     0      -5.308   4.835  -4.016  1.00  0.00     0.068 A 
HETATM   21  C18 UNK     0      -4.792   5.989  -3.335  1.00  0.00     0.037 A 
HETATM   22  C19 UNK     0      -4.683   5.995  -1.906  1.00  0.00     0.018 A 
HETATM   23  C20 UNK     0      -5.089   4.847  -1.153  1.00  0.00     0.009 A 
HETATM   24  C21 UNK     0      -5.605   3.695  -1.830  1.00  0.00     0.018 A 
HETATM   25  C22 UNK     0      -5.714   3.689  -3.257  1.00  0.00     0.037 A 
BRANCH  23  26
HETATM   26  C23 UNK     0      -4.972   4.853   0.364  1.00  0.00     0.123 C 
HETATM   27  N25 UNK     0      -4.277   3.882   0.980  1.00  0.00    -0.284 NA
HETATM   28  H49 UNK     0      -4.191   3.881   2.047  1.00  0.00     0.188 HD
BRANCH  26  29
HETATM   29  N24 UNK     0      -5.596   5.882   1.130  1.00  0.00    -0.384 N 
HETATM   30  H48 UNK     0      -5.771   6.842   0.692  1.00  0.00     0.157 HD
HETATM   31  H47 UNK     0      -5.889   5.692   2.141  1.00  0.00     0.157 HD
ENDBRANCH  26  29
ENDBRANCH  23  26
ENDBRANCH  19  20
ENDBRANCH  18  19
ENDBRANCH  17  18
ENDBRANCH   1  17
TORSDOF 12
ENDMDL
MODEL 9
REMARK VINA RESULT:    -6.035      2.837      3.839
REMARK INTER + INTRA:         -10.812
REMARK INTER:                  -9.295
REMARK INTRA:                  -1.517
REMARK UNBOUND:                -0.895
REMARK  12 active torsions:
REMARK  status: ('A' for Active; 'I' for Inactive)
REMARK    1  A    between atoms: C1_1  and  C2_2 
REMARK    2  A    between atoms: C1_1  and  C14_14 
REMARK    3  A    between atoms: C2_2  and  C3_3 
REMARK    4  A    between atoms: C3_3  and  O4_4 
REMARK    5  A    between atoms: O4_4  and  C5_5 
REMARK    6  A    between atoms: C8_8  and  C11_11 
REMARK    7  A    between atoms: C11_11  and  N12_12 
REMARK    8  A    between atoms: C14_14  and  C15_15 
REMARK    9  A    between atoms: C15_15  and  O16_16 
REMARK   10  A    between atoms: O16_16  and  C17_17 
REMARK   11  A    between atoms: C20_20  and  C23_23 
REMARK   12  A    between atoms: C23_23  and  N24_24 
ROOT
HETATM    1  C1  UNK     0      -4.641   9.761   4.422  1.00  0.00     0.004 C 
ENDROOT
BRANCH   1   2
HETATM    2  C2  UNK     0      -5.032   8.361   5.042  1.00  0.00     0.027 C 
BRANCH   2   3
HETATM    3  C3  UNK     0      -4.118   7.273   4.351  1.00  0.00     0.175 C 
BRANCH   3   4
HETATM    4  O4  UNK     0      -4.231   5.984   5.046  1.00  0.00    -0.351 OA
BRANCH   4   5
HETATM    5  C5  UNK     0      -3.395   5.672   6.135  1.00  0.00     0.068 A 
HETATM    6  C6  UNK     0      -2.158   6.371   6.312  1.00  0.00     0.037 A 
HETATM    7  C7  UNK     0      -1.309   6.051   7.423  1.00  0.00     0.018 A 
HETATM    8  C8  UNK     0      -1.696   5.034   8.354  1.00  0.00     0.009 A 
HETATM    9  C9  UNK     0      -2.932   4.333   8.175  1.00  0.00     0.018 A 
HETATM   10  C10 UNK     0      -3.779   4.652   7.065  1.00  0.00     0.037 A 
BRANCH   8  11
HETATM   11  C11 UNK     0      -0.801   4.695   9.530  1.00  0.00     0.123 C 
HETATM   12  N13 UNK     0       0.438   4.225   9.310  1.00  0.00    -0.284 NA
HETATM   13  H38 UNK     0       1.074   3.985  10.136  1.00  0.00     0.188 HD
BRANCH  11  14
HETATM   14  N12 UNK     0      -1.274   4.870  10.864  1.00  0.00    -0.384 N 
HETATM   15  H37 UNK     0      -2.013   5.614  11.076  1.00  0.00     0.157 HD
HETATM   16  H36 UNK     0      -0.890   4.258  11.652  1.00  0.00     0.157 HD
ENDBRANCH  11  14
ENDBRANCH   8  11
ENDBRANCH   4   5
ENDBRANCH   3   4
ENDBRANCH   2   3
ENDBRANCH   1   2
BRANCH   1  17
HETATM   17  C14 UNK     0      -4.612   9.700   2.840  1.00  0.00     0.027 C 
BRANCH  17  18
HETATM   18  C15 UNK     0      -3.538  10.749   2.342  1.00  0.00     0.175 C 
BRANCH  18  19
HETATM   19  O16 UNK     0      -2.565  10.138   1.424  1.00  0.00    -0.351 OA
BRANCH  19  20
HETATM   20  C17 UNK     0      -1.763   9.047   1.827  1.00  0.00     0.068 A 
HETATM   21  C18 UNK     0      -0.918   9.144   2.983  1.00  0.00     0.037 A 
HETATM   22  C19 UNK     0      -0.108   8.031   3.380  1.00  0.00     0.018 A 
HETATM   23  C20 UNK     0      -0.141   6.816   2.623  1.00  0.00     0.009 A 
HETATM   24  C21 UNK     0      -0.984   6.716   1.470  1.00  0.00     0.018 A 
HETATM   25  C22 UNK     0      -1.793   7.828   1.073  1.00  0.00     0.037 A 
BRANCH  23  26
HETATM   26  C23 UNK     0       0.720   5.635   3.045  1.00  0.00     0.123 C 
HETATM   27  N25 UNK     0       0.504   5.045   4.232  1.00  0.00    -0.284 NA
HETATM   28  H49 UNK     0       1.106   4.214   4.534  1.00  0.00     0.188 HD
BRANCH  26  29
HETATM   29  N24 UNK     0       1.754   5.156   2.187  1.00  0.00    -0.384 N 
HETATM   30  H48 UNK     0       2.174   4.185   2.346  1.00  0.00     0.157 HD
HETATM   31  H47 UNK     0       2.110   5.769   1.385  1.00  0.00     0.157 HD
ENDBRANCH  26  29
ENDBRANCH  23  26
ENDBRANCH  19  20
ENDBRANCH  18  19
ENDBRANCH  17  18
ENDBRANCH   1  17
TORSDOF 12
ENDMDL
