MODEL 2
REMARK VINA RESULT:    -6.729      3.118      4.761
REMARK INTER + INTRA:          -9.119
REMARK INTER:                 -11.606
REMARK INTRA:                   2.487
REMARK UNBOUND:                 1.937
REMARK  12 active torsions:
REMARK  status: ('A' for Active; 'I' for Inactive)
REMARK    1  A    between atoms: S1_1  and  C12_12 
REMARK    2  A    between atoms: S1_1  and  O3_3 
REMARK    3  A    between atoms: S1_1  and  N8_8 
REMARK    4  A    between atoms: O4_4  and  C21_21 
REMARK    5  A    between atoms: O4_4  and  C20_20 
REMARK    6  A    between atoms: O7_7  and  C22_22 
REMARK       I    between atoms: N8_8  and  C15_15 
REMARK    7  A    between atoms: N9_9  and  C24_24 
REMARK       I    between atoms: N9_9  and  C15_15 
REMARK       I    between atoms: N10_10  and  C20_20 
REMARK    8  A    between atoms: N10_10  and  C19_19 
REMARK    9  A    between atoms: C19_19  and  C22_22 
REMARK   10  A    between atoms: C19_19  and  C23_23 
REMARK   11  A    between atoms: C23_23  and  C25_25 
REMARK   12  A    between atoms: C24_24  and  C25_25 
ROOT
HETATM    1  S1  UNK     0      -3.234   8.722   4.327  1.00  0.00     0.212 S 
HETATM    2  O2  UNK     0      -1.867   8.978   4.849  1.00  0.00    -0.214 OA
ENDROOT
BRANCH   1   3
HETATM    3  C12 UNK     0      -3.868  10.208   3.521  1.00  0.00     0.067 A 
HETATM    4  C13 UNK     0      -4.886  10.994   4.144  1.00  0.00     0.025 A 
HETATM    5  C17 UNK     0      -5.380  12.167   3.492  1.00  0.00     0.008 A 
HETATM    6  C16 UNK     0      -4.856  12.554   2.219  1.00  0.00    -0.062 A 
HETATM    7  C26 UNK     0      -5.398  13.829   1.508  1.00  0.00     0.048 C 
HETATM    8  C18 UNK     0      -3.836  11.768   1.597  1.00  0.00     0.008 A 
HETATM    9  C14 UNK     0      -3.343  10.596   2.249  1.00  0.00     0.025 A 
ENDBRANCH   1   3
BRANCH   1  10
HETATM   10  O3  UNK     0      -4.120   8.364   5.463  1.00  0.00    -0.297 OA
HETATM   11  H43 UNK     0      -3.879   7.402   5.806  1.00  0.00     0.212 HD
ENDBRANCH   1  10
BRANCH   1  12
HETATM   12  N8  UNK     0      -3.182   7.436   3.233  1.00  0.00     0.016 NA
HETATM   13  C15 UNK     0      -2.742   6.173   3.716  1.00  0.00     0.704 C 
HETATM   14  N9  UNK     0      -2.345   6.041   5.077  1.00  0.00    -0.224 N 
HETATM   15  N11 UNK     0      -2.707   5.112   2.895  1.00  0.00    -0.232 N 
HETATM   16  H33 UNK     0      -2.051   5.088   5.465  1.00  0.00     0.177 HD
HETATM   17  H35 UNK     0      -3.010   5.215   1.875  1.00  0.00     0.174 HD
HETATM   18  H29 UNK     0      -2.375   4.162   3.262  1.00  0.00     0.174 HD
BRANCH  14  19
HETATM   19  C24 UNK     0      -2.345   7.267   5.969  1.00  0.00     0.158 C 
BRANCH  19  20
HETATM   20  C25 UNK     0      -1.891   6.881   7.433  1.00  0.00     0.023 C 
BRANCH  20  21
HETATM   21  C23 UNK     0      -0.866   5.680   7.360  1.00  0.00     0.038 C 
BRANCH  21  22
HETATM   22  C19 UNK     0      -0.995   4.762   8.637  1.00  0.00     0.184 C 
BRANCH  22  23
HETATM   23  N10 UNK     0      -0.516   5.529   9.856  1.00  0.00    -0.322 N 
HETATM   24  H34 UNK     0      -0.823   6.548   9.965  1.00  0.00     0.165 HD
HETATM   25  C20 UNK     0       0.318   4.963  10.864  1.00  0.00     0.362 C 
HETATM   26  O5  UNK     0       0.656   3.764  10.801  1.00  0.00    -0.238 OA
BRANCH  25  27
HETATM   27  O4  UNK     0       0.743   5.770  11.937  1.00  0.00    -0.294 OA
BRANCH  27  28
HETATM   28  C21 UNK     0       1.959   6.599  11.922  1.00  0.00     0.061 C 
HETATM   29  C28 UNK     0       1.764   7.785  10.897  1.00  0.00     0.046 C 
HETATM   30  C27 UNK     0       2.237   7.197  13.361  1.00  0.00     0.046 C 
HETATM   31  C29 UNK     0       3.202   5.727  11.483  1.00  0.00     0.046 C 
ENDBRANCH  27  28
ENDBRANCH  25  27
ENDBRANCH  22  23
BRANCH  22  32
HETATM   32  C22 UNK     0      -2.486   4.345   8.825  1.00  0.00     0.163 C 
HETATM   33  O6  UNK     0      -3.079   3.718   7.922  1.00  0.00    -0.648 OA
BRANCH  32  34
HETATM   34  O7  UNK     0      -3.157   4.666  10.011  1.00  0.00    -0.775 OA
HETATM   35  H31 UNK     0      -2.892   5.636  10.313  1.00  0.00     0.167 HD
ENDBRANCH  32  34
ENDBRANCH  22  32
ENDBRANCH  21  22
ENDBRANCH  20  21
ENDBRANCH  19  20
ENDBRANCH  14  19
ENDBRANCH   1  12
TORSDOF 12
ENDMDL
