MODEL 1
REMARK VINA RESULT:    -6.739      0.000      0.000
REMARK INTER + INTRA:          -9.135
REMARK INTER:                 -11.072
REMARK INTRA:                   1.937
REMARK UNBOUND:                 1.937
REMARK  12 active torsions:
REMARK  status: ('A' for Active; 'I' for Inactive)
REMARK    1  A    between atoms: S1_1  and  C12_12 
REMARK    2  A    between atoms: S1_1  and  O3_3 
REMARK    3  A    between atoms: S1_1  and  N8_8 
REMARK    4  A    between atoms: O4_4  and  C21_21 
REMARK    5  A    between atoms: O4_4  and  C20_20 
REMARK    6  A    between atoms: O7_7  and  C22_22 
REMARK       I    between atoms: N8_8  and  C15_15 
REMARK    7  A    between atoms: N9_9  and  C24_24 
REMARK       I    between atoms: N9_9  and  C15_15 
REMARK       I    between atoms: N10_10  and  C20_20 
REMARK    8  A    between atoms: N10_10  and  C19_19 
REMARK    9  A    between atoms: C19_19  and  C22_22 
REMARK   10  A    between atoms: C19_19  and  C23_23 
REMARK   11  A    between atoms: C23_23  and  C25_25 
REMARK   12  A    between atoms: C24_24  and  C25_25 
ROOT
HETATM    1  S1  UNK     0      -4.703   6.257   5.697  1.00  0.00     0.212 S 
HETATM    2  O2  UNK     0      -4.505   6.588   7.132  1.00  0.00    -0.214 OA
ENDROOT
BRANCH   1   3
HETATM    3  C12 UNK     0      -6.256   5.362   5.484  1.00  0.00     0.067 A 
HETATM    4  C13 UNK     0      -6.818   5.182   4.182  1.00  0.00     0.025 A 
HETATM    5  C17 UNK     0      -8.051   4.473   4.030  1.00  0.00     0.008 A 
HETATM    6  C16 UNK     0      -8.720   3.945   5.178  1.00  0.00    -0.062 A 
HETATM    7  C26 UNK     0     -10.064   3.176   5.011  1.00  0.00     0.048 C 
HETATM    8  C18 UNK     0      -8.156   4.124   6.479  1.00  0.00     0.008 A 
HETATM    9  C14 UNK     0      -6.925   4.832   6.631  1.00  0.00     0.025 A 
ENDBRANCH   1   3
BRANCH   1  10
HETATM   10  O3  UNK     0      -3.577   5.400   5.246  1.00  0.00    -0.297 OA
HETATM   11  H43 UNK     0      -3.190   4.870   6.065  1.00  0.00     0.212 HD
ENDBRANCH   1  10
BRANCH   1  12
HETATM   12  N8  UNK     0      -4.716   7.683   4.791  1.00  0.00     0.016 NA
HETATM   13  C15 UNK     0      -3.561   8.511   4.842  1.00  0.00     0.704 C 
HETATM   14  N9  UNK     0      -2.458   8.128   5.657  1.00  0.00    -0.224 N 
HETATM   15  N11 UNK     0      -3.509   9.642   4.122  1.00  0.00    -0.232 N 
HETATM   16  H33 UNK     0      -1.566   8.719   5.674  1.00  0.00     0.177 HD
HETATM   17  H35 UNK     0      -4.339   9.923   3.507  1.00  0.00     0.174 HD
HETATM   18  H29 UNK     0      -2.638  10.262   4.162  1.00  0.00     0.174 HD
BRANCH  14  19
HETATM   19  C24 UNK     0      -2.563   6.872   6.501  1.00  0.00     0.158 C 
BRANCH  19  20
HETATM   20  C25 UNK     0      -1.320   6.757   7.472  1.00  0.00     0.023 C 
BRANCH  20  21
HETATM   21  C23 UNK     0      -0.697   5.309   7.349  1.00  0.00     0.038 C 
BRANCH  21  22
HETATM   22  C19 UNK     0      -0.997   4.465   8.648  1.00  0.00     0.184 C 
BRANCH  22  23
HETATM   23  N10 UNK     0      -0.644   5.288   9.874  1.00  0.00    -0.322 N 
HETATM   24  H34 UNK     0      -1.125   6.236  10.002  1.00  0.00     0.165 HD
HETATM   25  C20 UNK     0       0.292   4.866  10.862  1.00  0.00     0.362 C 
HETATM   26  O5  UNK     0       0.836   3.747  10.777  1.00  0.00    -0.238 OA
BRANCH  25  27
HETATM   27  O4  UNK     0       0.581   5.722  11.943  1.00  0.00    -0.294 OA
BRANCH  27  28
HETATM   28  C21 UNK     0       1.677   6.705  11.953  1.00  0.00     0.061 C 
HETATM   29  C28 UNK     0       1.788   7.341  13.394  1.00  0.00     0.046 C 
HETATM   30  C27 UNK     0       3.049   6.005  11.588  1.00  0.00     0.046 C 
HETATM   31  C29 UNK     0       1.389   7.845  10.897  1.00  0.00     0.046 C 
ENDBRANCH  27  28
ENDBRANCH  25  27
ENDBRANCH  22  23
BRANCH  22  32
HETATM   32  C22 UNK     0      -2.509   4.086   8.680  1.00  0.00     0.163 C 
HETATM   33  O6  UNK     0      -3.149   4.154   9.750  1.00  0.00    -0.648 OA
BRANCH  32  34
HETATM   34  O7  UNK     0      -3.152   3.679   7.504  1.00  0.00    -0.775 OA
HETATM   35  H31 UNK     0      -3.011   2.648   7.366  1.00  0.00     0.167 HD
ENDBRANCH  32  34
ENDBRANCH  22  32
ENDBRANCH  21  22
ENDBRANCH  20  21
ENDBRANCH  19  20
ENDBRANCH  14  19
ENDBRANCH   1  12
TORSDOF 12
ENDMDL
MODEL 2
REMARK VINA RESULT:    -6.729      3.118      4.761
REMARK INTER + INTRA:          -9.119
REMARK INTER:                 -11.606
REMARK INTRA:                   2.487
REMARK UNBOUND:                 1.937
REMARK  12 active torsions:
REMARK  status: ('A' for Active; 'I' for Inactive)
REMARK    1  A    between atoms: S1_1  and  C12_12 
REMARK    2  A    between atoms: S1_1  and  O3_3 
REMARK    3  A    between atoms: S1_1  and  N8_8 
REMARK    4  A    between atoms: O4_4  and  C21_21 
REMARK    5  A    between atoms: O4_4  and  C20_20 
REMARK    6  A    between atoms: O7_7  and  C22_22 
REMARK       I    between atoms: N8_8  and  C15_15 
REMARK    7  A    between atoms: N9_9  and  C24_24 
REMARK       I    between atoms: N9_9  and  C15_15 
REMARK       I    between atoms: N10_10  and  C20_20 
REMARK    8  A    between atoms: N10_10  and  C19_19 
REMARK    9  A    between atoms: C19_19  and  C22_22 
REMARK   10  A    between atoms: C19_19  and  C23_23 
REMARK   11  A    between atoms: C23_23  and  C25_25 
REMARK   12  A    between atoms: C24_24  and  C25_25 
ROOT
HETATM    1  S1  UNK     0      -3.234   8.722   4.327  1.00  0.00     0.212 S 
HETATM    2  O2  UNK     0      -1.867   8.978   4.849  1.00  0.00    -0.214 OA
ENDROOT
BRANCH   1   3
HETATM    3  C12 UNK     0      -3.868  10.208   3.521  1.00  0.00     0.067 A 
HETATM    4  C13 UNK     0      -4.886  10.994   4.144  1.00  0.00     0.025 A 
HETATM    5  C17 UNK     0      -5.380  12.167   3.492  1.00  0.00     0.008 A 
HETATM    6  C16 UNK     0      -4.856  12.554   2.219  1.00  0.00    -0.062 A 
HETATM    7  C26 UNK     0      -5.398  13.829   1.508  1.00  0.00     0.048 C 
HETATM    8  C18 UNK     0      -3.836  11.768   1.597  1.00  0.00     0.008 A 
HETATM    9  C14 UNK     0      -3.343  10.596   2.249  1.00  0.00     0.025 A 
ENDBRANCH   1   3
BRANCH   1  10
HETATM   10  O3  UNK     0      -4.120   8.364   5.463  1.00  0.00    -0.297 OA
HETATM   11  H43 UNK     0      -3.879   7.402   5.806  1.00  0.00     0.212 HD
ENDBRANCH   1  10
BRANCH   1  12
HETATM   12  N8  UNK     0      -3.182   7.436   3.233  1.00  0.00     0.016 NA
HETATM   13  C15 UNK     0      -2.742   6.173   3.716  1.00  0.00     0.704 C 
HETATM   14  N9  UNK     0      -2.345   6.041   5.077  1.00  0.00    -0.224 N 
HETATM   15  N11 UNK     0      -2.707   5.112   2.895  1.00  0.00    -0.232 N 
HETATM   16  H33 UNK     0      -2.051   5.088   5.465  1.00  0.00     0.177 HD
HETATM   17  H35 UNK     0      -3.010   5.215   1.875  1.00  0.00     0.174 HD
HETATM   18  H29 UNK     0      -2.375   4.162   3.262  1.00  0.00     0.174 HD
BRANCH  14  19
HETATM   19  C24 UNK     0      -2.345   7.267   5.969  1.00  0.00     0.158 C 
BRANCH  19  20
HETATM   20  C25 UNK     0      -1.891   6.881   7.433  1.00  0.00     0.023 C 
BRANCH  20  21
HETATM   21  C23 UNK     0      -0.866   5.680   7.360  1.00  0.00     0.038 C 
BRANCH  21  22
HETATM   22  C19 UNK     0      -0.995   4.762   8.637  1.00  0.00     0.184 C 
BRANCH  22  23
HETATM   23  N10 UNK     0      -0.516   5.529   9.856  1.00  0.00    -0.322 N 
HETATM   24  H34 UNK     0      -0.823   6.548   9.965  1.00  0.00     0.165 HD
HETATM   25  C20 UNK     0       0.318   4.963  10.864  1.00  0.00     0.362 C 
HETATM   26  O5  UNK     0       0.656   3.764  10.801  1.00  0.00    -0.238 OA
BRANCH  25  27
HETATM   27  O4  UNK     0       0.743   5.770  11.937  1.00  0.00    -0.294 OA
BRANCH  27  28
HETATM   28  C21 UNK     0       1.959   6.599  11.922  1.00  0.00     0.061 C 
HETATM   29  C28 UNK     0       1.764   7.785  10.897  1.00  0.00     0.046 C 
HETATM   30  C27 UNK     0       2.237   7.197  13.361  1.00  0.00     0.046 C 
HETATM   31  C29 UNK     0       3.202   5.727  11.483  1.00  0.00     0.046 C 
ENDBRANCH  27  28
ENDBRANCH  25  27
ENDBRANCH  22  23
BRANCH  22  32
HETATM   32  C22 UNK     0      -2.486   4.345   8.825  1.00  0.00     0.163 C 
HETATM   33  O6  UNK     0      -3.079   3.718   7.922  1.00  0.00    -0.648 OA
BRANCH  32  34
HETATM   34  O7  UNK     0      -3.157   4.666  10.011  1.00  0.00    -0.775 OA
HETATM   35  H31 UNK     0      -2.892   5.636  10.313  1.00  0.00     0.167 HD
ENDBRANCH  32  34
ENDBRANCH  22  32
ENDBRANCH  21  22
ENDBRANCH  20  21
ENDBRANCH  19  20
ENDBRANCH  14  19
ENDBRANCH   1  12
TORSDOF 12
ENDMDL
MODEL 3
REMARK VINA RESULT:    -6.697      6.574     10.088
REMARK INTER + INTRA:          -9.066
REMARK INTER:                 -11.022
REMARK INTRA:                   1.955
REMARK UNBOUND:                 1.937
REMARK  12 active torsions:
REMARK  status: ('A' for Active; 'I' for Inactive)
REMARK    1  A    between atoms: S1_1  and  C12_12 
REMARK    2  A    between atoms: S1_1  and  O3_3 
REMARK    3  A    between atoms: S1_1  and  N8_8 
REMARK    4  A    between atoms: O4_4  and  C21_21 
REMARK    5  A    between atoms: O4_4  and  C20_20 
REMARK    6  A    between atoms: O7_7  and  C22_22 
REMARK       I    between atoms: N8_8  and  C15_15 
REMARK    7  A    between atoms: N9_9  and  C24_24 
REMARK       I    between atoms: N9_9  and  C15_15 
REMARK       I    between atoms: N10_10  and  C20_20 
REMARK    8  A    between atoms: N10_10  and  C19_19 
REMARK    9  A    between atoms: C19_19  and  C22_22 
REMARK   10  A    between atoms: C19_19  and  C23_23 
REMARK   11  A    between atoms: C23_23  and  C25_25 
REMARK   12  A    between atoms: C24_24  and  C25_25 
ROOT
HETATM    1  S1  UNK     0      -1.509   6.228  -0.964  1.00  0.00     0.212 S 
HETATM    2  O2  UNK     0      -1.846   5.053  -1.808  1.00  0.00    -0.214 OA
ENDROOT
BRANCH   1   3
HETATM    3  C12 UNK     0      -0.389   5.727   0.361  1.00  0.00     0.067 A 
HETATM    4  C13 UNK     0       0.565   4.683   0.150  1.00  0.00     0.025 A 
HETATM    5  C17 UNK     0       1.443   4.296   1.209  1.00  0.00     0.008 A 
HETATM    6  C16 UNK     0       1.370   4.952   2.478  1.00  0.00    -0.062 A 
HETATM    7  C26 UNK     0       2.325   4.527   3.632  1.00  0.00     0.048 C 
HETATM    8  C18 UNK     0       0.417   5.997   2.687  1.00  0.00     0.008 A 
HETATM    9  C14 UNK     0      -0.461   6.384   1.628  1.00  0.00     0.025 A 
ENDBRANCH   1   3
BRANCH   1  10
HETATM   10  O3  UNK     0      -2.760   6.764  -0.371  1.00  0.00    -0.297 OA
HETATM   11  H43 UNK     0      -3.505   6.024  -0.395  1.00  0.00     0.212 HD
ENDBRANCH   1  10
BRANCH   1  12
HETATM   12  N8  UNK     0      -0.791   7.419  -1.923  1.00  0.00     0.016 NA
HETATM   13  C15 UNK     0      -1.577   8.002  -2.954  1.00  0.00     0.704 C 
HETATM   14  N9  UNK     0      -2.914   7.555  -3.155  1.00  0.00    -0.224 N 
HETATM   15  N11 UNK     0      -1.065   8.970  -3.728  1.00  0.00    -0.232 N 
HETATM   16  H33 UNK     0      -3.532   8.013  -3.900  1.00  0.00     0.177 HD
HETATM   17  H35 UNK     0      -0.061   9.306  -3.570  1.00  0.00     0.174 HD
HETATM   18  H29 UNK     0      -1.659   9.407  -4.504  1.00  0.00     0.174 HD
BRANCH  14  19
HETATM   19  C24 UNK     0      -3.452   6.424  -2.301  1.00  0.00     0.158 C 
BRANCH  19  20
HETATM   20  C25 UNK     0      -5.030   6.371  -2.389  1.00  0.00     0.023 C 
BRANCH  20  21
HETATM   21  C23 UNK     0      -5.502   4.862  -2.357  1.00  0.00     0.038 C 
BRANCH  21  22
HETATM   22  C19 UNK     0      -4.785   4.081  -1.188  1.00  0.00     0.184 C 
BRANCH  22  23
HETATM   23  N10 UNK     0      -5.450   4.429   0.130  1.00  0.00    -0.322 N 
HETATM   24  H34 UNK     0      -6.508   4.589   0.136  1.00  0.00     0.165 HD
HETATM   25  C20 UNK     0      -4.742   4.553   1.360  1.00  0.00     0.362 C 
HETATM   26  O5  UNK     0      -3.516   4.324   1.407  1.00  0.00    -0.238 OA
BRANCH  25  27
HETATM   27  O4  UNK     0      -5.445   4.921   2.524  1.00  0.00    -0.294 OA
BRANCH  27  28
HETATM   28  C21 UNK     0      -6.131   6.210   2.707  1.00  0.00     0.061 C 
HETATM   29  C28 UNK     0      -6.625   6.326   4.202  1.00  0.00     0.046 C 
HETATM   30  C27 UNK     0      -5.147   7.408   2.391  1.00  0.00     0.046 C 
HETATM   31  C29 UNK     0      -7.375   6.302   1.735  1.00  0.00     0.046 C 
ENDBRANCH  27  28
ENDBRANCH  25  27
ENDBRANCH  22  23
BRANCH  22  32
HETATM   32  C22 UNK     0      -4.894   2.547  -1.449  1.00  0.00     0.163 C 
HETATM   33  O6  UNK     0      -3.861   1.861  -1.595  1.00  0.00    -0.648 OA
BRANCH  32  34
HETATM   34  O7  UNK     0      -6.153   1.937  -1.510  1.00  0.00    -0.775 OA
HETATM   35  H31 UNK     0      -6.141   1.049  -0.948  1.00  0.00     0.167 HD
ENDBRANCH  32  34
ENDBRANCH  22  32
ENDBRANCH  21  22
ENDBRANCH  20  21
ENDBRANCH  19  20
ENDBRANCH  14  19
ENDBRANCH   1  12
TORSDOF 12
ENDMDL
MODEL 4
REMARK VINA RESULT:    -6.684      6.405     11.295
REMARK INTER + INTRA:          -9.045
REMARK INTER:                 -11.539
REMARK INTRA:                   2.494
REMARK UNBOUND:                 1.937
REMARK  12 active torsions:
REMARK  status: ('A' for Active; 'I' for Inactive)
REMARK    1  A    between atoms: S1_1  and  C12_12 
REMARK    2  A    between atoms: S1_1  and  O3_3 
REMARK    3  A    between atoms: S1_1  and  N8_8 
REMARK    4  A    between atoms: O4_4  and  C21_21 
REMARK    5  A    between atoms: O4_4  and  C20_20 
REMARK    6  A    between atoms: O7_7  and  C22_22 
REMARK       I    between atoms: N8_8  and  C15_15 
REMARK    7  A    between atoms: N9_9  and  C24_24 
REMARK       I    between atoms: N9_9  and  C15_15 
REMARK       I    between atoms: N10_10  and  C20_20 
REMARK    8  A    between atoms: N10_10  and  C19_19 
REMARK    9  A    between atoms: C19_19  and  C22_22 
REMARK   10  A    between atoms: C19_19  and  C23_23 
REMARK   11  A    between atoms: C23_23  and  C25_25 
REMARK   12  A    between atoms: C24_24  and  C25_25 
ROOT
HETATM    1  S1  UNK     0      -5.092   5.516   3.973  1.00  0.00     0.212 S 
HETATM    2  O2  UNK     0      -5.282   6.853   3.354  1.00  0.00    -0.214 OA
ENDROOT
BRANCH   1   3
HETATM    3  C12 UNK     0      -3.861   5.621   5.289  1.00  0.00     0.067 A 
HETATM    4  C13 UNK     0      -2.723   6.475   5.153  1.00  0.00     0.025 A 
HETATM    5  C17 UNK     0      -1.755   6.546   6.203  1.00  0.00     0.008 A 
HETATM    6  C16 UNK     0      -1.925   5.765   7.389  1.00  0.00    -0.062 A 
HETATM    7  C26 UNK     0      -0.869   5.841   8.530  1.00  0.00     0.048 C 
HETATM    8  C18 UNK     0      -3.065   4.913   7.525  1.00  0.00     0.008 A 
HETATM    9  C14 UNK     0      -4.032   4.842   6.476  1.00  0.00     0.025 A 
ENDBRANCH   1   3
BRANCH   1  10
HETATM   10  O3  UNK     0      -4.616   4.570   2.931  1.00  0.00    -0.297 OA
HETATM   11  H43 UNK     0      -5.039   3.624   3.097  1.00  0.00     0.212 HD
ENDBRANCH   1  10
BRANCH   1  12
HETATM   12  N8  UNK     0      -6.567   4.970   4.589  1.00  0.00     0.016 NA
HETATM   13  C15 UNK     0      -7.623   4.730   3.667  1.00  0.00     0.704 C 
HETATM   14  N9  UNK     0      -7.412   4.974   2.280  1.00  0.00    -0.224 N 
HETATM   15  N11 UNK     0      -8.806   4.272   4.100  1.00  0.00    -0.232 N 
HETATM   16  H33 UNK     0      -8.183   4.760   1.569  1.00  0.00     0.177 HD
HETATM   17  H35 UNK     0      -8.958   4.085   5.143  1.00  0.00     0.174 HD
HETATM   18  H29 UNK     0      -9.599   4.092   3.403  1.00  0.00     0.174 HD
BRANCH  14  19
HETATM   19  C24 UNK     0      -6.082   5.542   1.823  1.00  0.00     0.158 C 
BRANCH  19  20
HETATM   20  C25 UNK     0      -6.147   5.931   0.292  1.00  0.00     0.023 C 
BRANCH  20  21
HETATM   21  C23 UNK     0      -5.083   5.076  -0.507  1.00  0.00     0.038 C 
BRANCH  21  22
HETATM   22  C19 UNK     0      -5.793   4.195  -1.607  1.00  0.00     0.184 C 
BRANCH  22  23
HETATM   23  N10 UNK     0      -5.345   4.652  -2.983  1.00  0.00    -0.322 N 
HETATM   24  H34 UNK     0      -4.518   5.328  -3.047  1.00  0.00     0.165 HD
HETATM   25  C20 UNK     0      -5.967   4.228  -4.193  1.00  0.00     0.362 C 
HETATM   26  O5  UNK     0      -6.901   3.402  -4.166  1.00  0.00    -0.238 OA
BRANCH  25  27
HETATM   27  O4  UNK     0      -5.504   4.742  -5.420  1.00  0.00    -0.294 OA
BRANCH  27  28
HETATM   28  C21 UNK     0      -4.347   4.210  -6.159  1.00  0.00     0.061 C 
HETATM   29  C28 UNK     0      -3.907   2.838  -5.514  1.00  0.00     0.046 C 
HETATM   30  C27 UNK     0      -4.726   3.971  -7.677  1.00  0.00     0.046 C 
HETATM   31  C29 UNK     0      -3.144   5.233  -6.089  1.00  0.00     0.046 C 
ENDBRANCH  27  28
ENDBRANCH  25  27
ENDBRANCH  22  23
BRANCH  22  32
HETATM   32  C22 UNK     0      -5.410   2.698  -1.394  1.00  0.00     0.163 C 
HETATM   33  O6  UNK     0      -4.238   2.388  -1.096  1.00  0.00    -0.648 OA
BRANCH  32  34
HETATM   34  O7  UNK     0      -6.385   1.701  -1.529  1.00  0.00    -0.775 OA
HETATM   35  H31 UNK     0      -7.258   1.993  -1.023  1.00  0.00     0.167 HD
ENDBRANCH  32  34
ENDBRANCH  22  32
ENDBRANCH  21  22
ENDBRANCH  20  21
ENDBRANCH  19  20
ENDBRANCH  14  19
ENDBRANCH   1  12
TORSDOF 12
ENDMDL
MODEL 5
REMARK VINA RESULT:    -6.676      5.962      9.832
REMARK INTER + INTRA:          -9.032
REMARK INTER:                 -11.731
REMARK INTRA:                   2.698
REMARK UNBOUND:                 1.937
REMARK  12 active torsions:
REMARK  status: ('A' for Active; 'I' for Inactive)
REMARK    1  A    between atoms: S1_1  and  C12_12 
REMARK    2  A    between atoms: S1_1  and  O3_3 
REMARK    3  A    between atoms: S1_1  and  N8_8 
REMARK    4  A    between atoms: O4_4  and  C21_21 
REMARK    5  A    between atoms: O4_4  and  C20_20 
REMARK    6  A    between atoms: O7_7  and  C22_22 
REMARK       I    between atoms: N8_8  and  C15_15 
REMARK    7  A    between atoms: N9_9  and  C24_24 
REMARK       I    between atoms: N9_9  and  C15_15 
REMARK       I    between atoms: N10_10  and  C20_20 
REMARK    8  A    between atoms: N10_10  and  C19_19 
REMARK    9  A    between atoms: C19_19  and  C22_22 
REMARK   10  A    between atoms: C19_19  and  C23_23 
REMARK   11  A    between atoms: C23_23  and  C25_25 
REMARK   12  A    between atoms: C24_24  and  C25_25 
ROOT
HETATM    1  S1  UNK     0      -5.005   5.513   3.698  1.00  0.00     0.212 S 
HETATM    2  O2  UNK     0      -5.161   6.811   2.993  1.00  0.00    -0.214 OA
ENDROOT
BRANCH   1   3
HETATM    3  C12 UNK     0      -3.804   5.685   5.036  1.00  0.00     0.067 A 
HETATM    4  C13 UNK     0      -2.622   6.467   4.855  1.00  0.00     0.025 A 
HETATM    5  C17 UNK     0      -1.679   6.592   5.923  1.00  0.00     0.008 A 
HETATM    6  C16 UNK     0      -1.919   5.936   7.171  1.00  0.00    -0.062 A 
HETATM    7  C26 UNK     0      -0.890   6.070   8.332  1.00  0.00     0.048 C 
HETATM    8  C18 UNK     0      -3.103   5.156   7.352  1.00  0.00     0.008 A 
HETATM    9  C14 UNK     0      -4.045   5.031   6.284  1.00  0.00     0.025 A 
ENDBRANCH   1   3
BRANCH   1  10
HETATM   10  O3  UNK     0      -4.517   4.499   2.729  1.00  0.00    -0.297 OA
HETATM   11  H43 UNK     0      -3.690   4.882   2.208  1.00  0.00     0.212 HD
ENDBRANCH   1  10
BRANCH   1  12
HETATM   12  N8  UNK     0      -6.502   5.025   4.310  1.00  0.00     0.016 NA
HETATM   13  C15 UNK     0      -7.557   4.805   3.382  1.00  0.00     0.704 C 
HETATM   14  N9  UNK     0      -7.327   5.021   1.994  1.00  0.00    -0.224 N 
HETATM   15  N11 UNK     0      -8.758   4.392   3.812  1.00  0.00    -0.232 N 
HETATM   16  H33 UNK     0      -8.099   4.821   1.279  1.00  0.00     0.177 HD
HETATM   17  H35 UNK     0      -8.925   4.227   4.856  1.00  0.00     0.174 HD
HETATM   18  H29 UNK     0      -9.551   4.228   3.111  1.00  0.00     0.174 HD
BRANCH  14  19
HETATM   19  C24 UNK     0      -5.975   5.538   1.540  1.00  0.00     0.158 C 
BRANCH  19  20
HETATM   20  C25 UNK     0      -5.921   5.621  -0.038  1.00  0.00     0.023 C 
BRANCH  20  21
HETATM   21  C23 UNK     0      -4.422   5.459  -0.516  1.00  0.00     0.038 C 
BRANCH  21  22
HETATM   22  C19 UNK     0      -4.325   4.407  -1.688  1.00  0.00     0.184 C 
BRANCH  22  23
HETATM   23  N10 UNK     0      -3.325   3.329  -1.313  1.00  0.00    -0.322 N 
HETATM   24  H34 UNK     0      -3.088   3.196  -0.278  1.00  0.00     0.165 HD
HETATM   25  C20 UNK     0      -2.684   2.485  -2.266  1.00  0.00     0.362 C 
HETATM   26  O5  UNK     0      -2.970   2.572  -3.478  1.00  0.00    -0.238 OA
BRANCH  25  27
HETATM   27  O4  UNK     0      -1.738   1.541  -1.821  1.00  0.00    -0.294 OA
BRANCH  27  28
HETATM   28  C21 UNK     0      -0.280   1.724  -1.907  1.00  0.00     0.061 C 
HETATM   29  C28 UNK     0       0.239   1.119  -3.270  1.00  0.00     0.046 C 
HETATM   30  C27 UNK     0       0.087   3.262  -1.849  1.00  0.00     0.046 C 
HETATM   31  C29 UNK     0       0.429   0.985  -0.703  1.00  0.00     0.046 C 
ENDBRANCH  27  28
ENDBRANCH  25  27
ENDBRANCH  22  23
BRANCH  22  32
HETATM   32  C22 UNK     0      -5.728   3.768  -1.926  1.00  0.00     0.163 C 
HETATM   33  O6  UNK     0      -6.486   4.230  -2.805  1.00  0.00    -0.648 OA
BRANCH  32  34
HETATM   34  O7  UNK     0      -6.134   2.668  -1.159  1.00  0.00    -0.775 OA
HETATM   35  H31 UNK     0      -7.087   2.853  -0.759  1.00  0.00     0.167 HD
ENDBRANCH  32  34
ENDBRANCH  22  32
ENDBRANCH  21  22
ENDBRANCH  20  21
ENDBRANCH  19  20
ENDBRANCH  14  19
ENDBRANCH   1  12
TORSDOF 12
ENDMDL
MODEL 6
REMARK VINA RESULT:    -6.474     10.643     14.358
REMARK INTER + INTRA:          -8.700
REMARK INTER:                 -10.120
REMARK INTRA:                   1.419
REMARK UNBOUND:                 1.937
REMARK  12 active torsions:
REMARK  status: ('A' for Active; 'I' for Inactive)
REMARK    1  A    between atoms: S1_1  and  C12_12 
REMARK    2  A    between atoms: S1_1  and  O3_3 
REMARK    3  A    between atoms: S1_1  and  N8_8 
REMARK    4  A    between atoms: O4_4  and  C21_21 
REMARK    5  A    between atoms: O4_4  and  C20_20 
REMARK    6  A    between atoms: O7_7  and  C22_22 
REMARK       I    between atoms: N8_8  and  C15_15 
REMARK    7  A    between atoms: N9_9  and  C24_24 
REMARK       I    between atoms: N9_9  and  C15_15 
REMARK       I    between atoms: N10_10  and  C20_20 
REMARK    8  A    between atoms: N10_10  and  C19_19 
REMARK    9  A    between atoms: C19_19  and  C22_22 
REMARK   10  A    between atoms: C19_19  and  C23_23 
REMARK   11  A    between atoms: C23_23  and  C25_25 
REMARK   12  A    between atoms: C24_24  and  C25_25 
ROOT
HETATM    1  S1  UNK     0      -0.422   2.694  -3.298  1.00  0.00     0.212 S 
HETATM    2  O2  UNK     0      -1.624   1.844  -3.104  1.00  0.00    -0.214 OA
ENDROOT
BRANCH   1   3
HETATM    3  C12 UNK     0       0.171   3.288  -1.700  1.00  0.00     0.067 A 
HETATM    4  C13 UNK     0      -0.127   4.617  -1.263  1.00  0.00     0.025 A 
HETATM    5  C17 UNK     0       0.352   5.074   0.004  1.00  0.00     0.008 A 
HETATM    6  C16 UNK     0       1.126   4.204   0.835  1.00  0.00    -0.062 A 
HETATM    7  C26 UNK     0       1.649   4.705   2.213  1.00  0.00     0.048 C 
HETATM    8  C18 UNK     0       1.421   2.876   0.398  1.00  0.00     0.008 A 
HETATM    9  C14 UNK     0       0.943   2.419  -0.869  1.00  0.00     0.025 A 
ENDBRANCH   1   3
BRANCH   1  10
HETATM   10  O3  UNK     0      -0.790   3.855  -4.148  1.00  0.00    -0.297 OA
HETATM   11  H43 UNK     0      -1.287   4.572  -3.564  1.00  0.00     0.212 HD
ENDBRANCH   1  10
BRANCH   1  12
HETATM   12  N8  UNK     0       0.780   1.795  -4.073  1.00  0.00     0.016 NA
HETATM   13  C15 UNK     0       0.496   1.290  -5.372  1.00  0.00     0.704 C 
HETATM   14  N9  UNK     0      -0.778   1.538  -5.959  1.00  0.00    -0.224 N 
HETATM   15  N11 UNK     0       1.424   0.592  -6.043  1.00  0.00    -0.232 N 
HETATM   16  H33 UNK     0      -0.992   1.201  -6.952  1.00  0.00     0.177 HD
HETATM   17  H35 UNK     0       2.382   0.412  -5.600  1.00  0.00     0.174 HD
HETATM   18  H29 UNK     0       1.207   0.214  -7.021  1.00  0.00     0.174 HD
BRANCH  14  19
HETATM   19  C24 UNK     0      -1.827   2.286  -5.158  1.00  0.00     0.158 C 
BRANCH  19  20
HETATM   20  C25 UNK     0      -3.039   2.693  -6.088  1.00  0.00     0.023 C 
BRANCH  20  21
HETATM   21  C23 UNK     0      -2.487   3.113  -7.509  1.00  0.00     0.038 C 
BRANCH  21  22
HETATM   22  C19 UNK     0      -2.166   4.658  -7.545  1.00  0.00     0.184 C 
BRANCH  22  23
HETATM   23  N10 UNK     0      -2.542   5.279  -6.212  1.00  0.00    -0.322 N 
HETATM   24  H34 UNK     0      -2.033   4.940  -5.334  1.00  0.00     0.165 HD
HETATM   25  C20 UNK     0      -3.535   6.291  -6.068  1.00  0.00     0.362 C 
HETATM   26  O5  UNK     0      -4.116   6.751  -7.072  1.00  0.00    -0.238 OA
BRANCH  25  27
HETATM   27  O4  UNK     0      -3.841   6.775  -4.781  1.00  0.00    -0.294 OA
BRANCH  27  28
HETATM   28  C21 UNK     0      -5.034   6.387  -4.010  1.00  0.00     0.061 C 
HETATM   29  C28 UNK     0      -6.124   7.521  -4.137  1.00  0.00     0.046 C 
HETATM   30  C27 UNK     0      -5.630   5.030  -4.564  1.00  0.00     0.046 C 
HETATM   31  C29 UNK     0      -4.653   6.193  -2.488  1.00  0.00     0.046 C 
ENDBRANCH  27  28
ENDBRANCH  25  27
ENDBRANCH  22  23
BRANCH  22  32
HETATM   32  C22 UNK     0      -0.644   4.863  -7.815  1.00  0.00     0.163 C 
HETATM   33  O6  UNK     0      -0.260   5.345  -8.901  1.00  0.00    -0.648 OA
BRANCH  32  34
HETATM   34  O7  UNK     0       0.293   4.514  -6.834  1.00  0.00    -0.775 OA
HETATM   35  H31 UNK     0       0.977   5.301  -6.706  1.00  0.00     0.167 HD
ENDBRANCH  32  34
ENDBRANCH  22  32
ENDBRANCH  21  22
ENDBRANCH  20  21
ENDBRANCH  19  20
ENDBRANCH  14  19
ENDBRANCH   1  12
TORSDOF 12
ENDMDL
MODEL 7
REMARK VINA RESULT:    -6.434      8.528     12.591
REMARK INTER + INTRA:          -8.635
REMARK INTER:                 -10.455
REMARK INTRA:                   1.820
REMARK UNBOUND:                 1.937
REMARK  12 active torsions:
REMARK  status: ('A' for Active; 'I' for Inactive)
REMARK    1  A    between atoms: S1_1  and  C12_12 
REMARK    2  A    between atoms: S1_1  and  O3_3 
REMARK    3  A    between atoms: S1_1  and  N8_8 
REMARK    4  A    between atoms: O4_4  and  C21_21 
REMARK    5  A    between atoms: O4_4  and  C20_20 
REMARK    6  A    between atoms: O7_7  and  C22_22 
REMARK       I    between atoms: N8_8  and  C15_15 
REMARK    7  A    between atoms: N9_9  and  C24_24 
REMARK       I    between atoms: N9_9  and  C15_15 
REMARK       I    between atoms: N10_10  and  C20_20 
REMARK    8  A    between atoms: N10_10  and  C19_19 
REMARK    9  A    between atoms: C19_19  and  C22_22 
REMARK   10  A    between atoms: C19_19  and  C23_23 
REMARK   11  A    between atoms: C23_23  and  C25_25 
REMARK   12  A    between atoms: C24_24  and  C25_25 
ROOT
HETATM    1  S1  UNK     0      -1.846   6.393  -1.542  1.00  0.00     0.212 S 
HETATM    2  O2  UNK     0      -2.055   5.298  -2.524  1.00  0.00    -0.214 OA
ENDROOT
BRANCH   1   3
HETATM    3  C12 UNK     0      -0.762   5.826  -0.215  1.00  0.00     0.067 A 
HETATM    4  C13 UNK     0       0.110   4.711  -0.416  1.00  0.00     0.025 A 
HETATM    5  C17 UNK     0       0.961   4.272   0.646  1.00  0.00     0.008 A 
HETATM    6  C16 UNK     0       0.942   4.947   1.906  1.00  0.00    -0.062 A 
HETATM    7  C26 UNK     0       1.866   4.465   3.063  1.00  0.00     0.048 C 
HETATM    8  C18 UNK     0       0.071   6.063   2.105  1.00  0.00     0.008 A 
HETATM    9  C14 UNK     0      -0.779   6.502   1.044  1.00  0.00     0.025 A 
ENDBRANCH   1   3
BRANCH   1  10
HETATM   10  O3  UNK     0      -3.161   6.778  -0.970  1.00  0.00    -0.297 OA
HETATM   11  H43 UNK     0      -3.195   7.819  -0.839  1.00  0.00     0.212 HD
ENDBRANCH   1  10
BRANCH   1  12
HETATM   12  N8  UNK     0      -1.168   7.726  -2.327  1.00  0.00     0.016 NA
HETATM   13  C15 UNK     0      -1.917   8.331  -3.374  1.00  0.00     0.704 C 
HETATM   14  N9  UNK     0      -3.183   7.789  -3.735  1.00  0.00    -0.224 N 
HETATM   15  N11 UNK     0      -1.436   9.408  -4.014  1.00  0.00    -0.232 N 
HETATM   16  H33 UNK     0      -3.777   8.257  -4.492  1.00  0.00     0.177 HD
HETATM   17  H35 UNK     0      -0.486   9.814  -3.736  1.00  0.00     0.174 HD
HETATM   18  H29 UNK     0      -2.002   9.860  -4.801  1.00  0.00     0.174 HD
BRANCH  14  19
HETATM   19  C24 UNK     0      -3.680   6.540  -3.032  1.00  0.00     0.158 C 
BRANCH  19  20
HETATM   20  C25 UNK     0      -4.977   5.987  -3.747  1.00  0.00     0.023 C 
BRANCH  20  21
HETATM   21  C23 UNK     0      -5.707   4.967  -2.783  1.00  0.00     0.038 C 
BRANCH  21  22
HETATM   22  C19 UNK     0      -5.317   3.482  -3.149  1.00  0.00     0.184 C 
BRANCH  22  23
HETATM   23  N10 UNK     0      -3.960   3.473  -3.830  1.00  0.00    -0.322 N 
HETATM   24  H34 UNK     0      -3.226   4.180  -3.504  1.00  0.00     0.165 HD
HETATM   25  C20 UNK     0      -3.613   2.574  -4.879  1.00  0.00     0.362 C 
HETATM   26  O5  UNK     0      -4.421   1.701  -5.254  1.00  0.00    -0.238 OA
BRANCH  25  27
HETATM   27  O4  UNK     0      -2.340   2.672  -5.475  1.00  0.00    -0.294 OA
BRANCH  27  28
HETATM   28  C21 UNK     0      -1.985   3.650  -6.517  1.00  0.00     0.061 C 
HETATM   29  C28 UNK     0      -1.075   2.946  -7.599  1.00  0.00     0.046 C 
HETATM   30  C27 UNK     0      -3.290   4.205  -7.219  1.00  0.00     0.046 C 
HETATM   31  C29 UNK     0      -1.196   4.860  -5.876  1.00  0.00     0.046 C 
ENDBRANCH  27  28
ENDBRANCH  25  27
ENDBRANCH  22  23
BRANCH  22  32
HETATM   32  C22 UNK     0      -5.262   2.627  -1.846  1.00  0.00     0.163 C 
HETATM   33  O6  UNK     0      -4.234   2.631  -1.137  1.00  0.00    -0.648 OA
BRANCH  32  34
HETATM   34  O7  UNK     0      -6.371   1.861  -1.466  1.00  0.00    -0.775 OA
HETATM   35  H31 UNK     0      -7.240   2.449  -1.523  1.00  0.00     0.167 HD
ENDBRANCH  32  34
ENDBRANCH  22  32
ENDBRANCH  21  22
ENDBRANCH  20  21
ENDBRANCH  19  20
ENDBRANCH  14  19
ENDBRANCH   1  12
TORSDOF 12
ENDMDL
MODEL 8
REMARK VINA RESULT:    -6.387      9.474     13.210
REMARK INTER + INTRA:          -8.556
REMARK INTER:                 -10.562
REMARK INTRA:                   2.006
REMARK UNBOUND:                 1.937
REMARK  12 active torsions:
REMARK  status: ('A' for Active; 'I' for Inactive)
REMARK    1  A    between atoms: S1_1  and  C12_12 
REMARK    2  A    between atoms: S1_1  and  O3_3 
REMARK    3  A    between atoms: S1_1  and  N8_8 
REMARK    4  A    between atoms: O4_4  and  C21_21 
REMARK    5  A    between atoms: O4_4  and  C20_20 
REMARK    6  A    between atoms: O7_7  and  C22_22 
REMARK       I    between atoms: N8_8  and  C15_15 
REMARK    7  A    between atoms: N9_9  and  C24_24 
REMARK       I    between atoms: N9_9  and  C15_15 
REMARK       I    between atoms: N10_10  and  C20_20 
REMARK    8  A    between atoms: N10_10  and  C19_19 
REMARK    9  A    between atoms: C19_19  and  C22_22 
REMARK   10  A    between atoms: C19_19  and  C23_23 
REMARK   11  A    between atoms: C23_23  and  C25_25 
REMARK   12  A    between atoms: C24_24  and  C25_25 
ROOT
HETATM    1  S1  UNK     0      -0.619   2.778  -3.211  1.00  0.00     0.212 S 
HETATM    2  O2  UNK     0      -1.981   2.213  -3.028  1.00  0.00    -0.214 OA
ENDROOT
BRANCH   1   3
HETATM    3  C12 UNK     0       0.000   3.401  -1.634  1.00  0.00     0.067 A 
HETATM    4  C13 UNK     0      -0.338   4.717  -1.189  1.00  0.00     0.025 A 
HETATM    5  C17 UNK     0       0.163   5.197   0.061  1.00  0.00     0.008 A 
HETATM    6  C16 UNK     0       1.000   4.364   0.866  1.00  0.00    -0.062 A 
HETATM    7  C26 UNK     0       1.548   4.889   2.225  1.00  0.00     0.048 C 
HETATM    8  C18 UNK     0       1.337   3.047   0.421  1.00  0.00     0.008 A 
HETATM    9  C14 UNK     0       0.836   2.567  -0.828  1.00  0.00     0.025 A 
ENDBRANCH   1   3
BRANCH   1  10
HETATM   10  O3  UNK     0      -0.693   3.896  -4.185  1.00  0.00    -0.297 OA
HETATM   11  H43 UNK     0      -1.104   4.742  -3.718  1.00  0.00     0.212 HD
ENDBRANCH   1  10
BRANCH   1  12
HETATM   12  N8  UNK     0       0.407   1.580  -3.814  1.00  0.00     0.016 NA
HETATM   13  C15 UNK     0       0.096   1.018  -5.083  1.00  0.00     0.704 C 
HETATM   14  N9  UNK     0      -1.062   1.461  -5.782  1.00  0.00    -0.224 N 
HETATM   15  N11 UNK     0       0.892   0.081  -5.620  1.00  0.00    -0.232 N 
HETATM   16  H33 UNK     0      -1.288   1.078  -6.756  1.00  0.00     0.177 HD
HETATM   17  H35 UNK     0       1.764  -0.245  -5.093  1.00  0.00     0.174 HD
HETATM   18  H29 UNK     0       0.655  -0.339  -6.576  1.00  0.00     0.174 HD
BRANCH  14  19
HETATM   19  C24 UNK     0      -1.973   2.483  -5.130  1.00  0.00     0.158 C 
BRANCH  19  20
HETATM   20  C25 UNK     0      -3.261   2.717  -6.017  1.00  0.00     0.023 C 
BRANCH  20  21
HETATM   21  C23 UNK     0      -3.422   4.265  -6.301  1.00  0.00     0.038 C 
BRANCH  21  22
HETATM   22  C19 UNK     0      -4.737   4.818  -5.626  1.00  0.00     0.184 C 
BRANCH  22  23
HETATM   23  N10 UNK     0      -4.536   4.892  -4.124  1.00  0.00    -0.322 N 
HETATM   24  H34 UNK     0      -3.651   5.367  -3.754  1.00  0.00     0.165 HD
HETATM   25  C20 UNK     0      -5.463   4.364  -3.179  1.00  0.00     0.362 C 
HETATM   26  O5  UNK     0      -6.531   3.848  -3.566  1.00  0.00    -0.238 OA
BRANCH  25  27
HETATM   27  O4  UNK     0      -5.166   4.446  -1.805  1.00  0.00    -0.294 OA
BRANCH  27  28
HETATM   28  C21 UNK     0      -5.270   5.678  -1.005  1.00  0.00     0.061 C 
HETATM   29  C28 UNK     0      -5.482   5.293   0.512  1.00  0.00     0.046 C 
HETATM   30  C27 UNK     0      -3.948   6.537  -1.142  1.00  0.00     0.046 C 
HETATM   31  C29 UNK     0      -6.495   6.543  -1.503  1.00  0.00     0.046 C 
ENDBRANCH  27  28
ENDBRANCH  25  27
ENDBRANCH  22  23
BRANCH  22  32
HETATM   32  C22 UNK     0      -5.048   6.238  -6.190  1.00  0.00     0.163 C 
HETATM   33  O6  UNK     0      -6.227   6.647  -6.243  1.00  0.00    -0.648 OA
BRANCH  32  34
HETATM   34  O7  UNK     0      -4.003   7.060  -6.630  1.00  0.00    -0.775 OA
HETATM   35  H31 UNK     0      -4.116   8.021  -6.222  1.00  0.00     0.167 HD
ENDBRANCH  32  34
ENDBRANCH  22  32
ENDBRANCH  21  22
ENDBRANCH  20  21
ENDBRANCH  19  20
ENDBRANCH  14  19
ENDBRANCH   1  12
TORSDOF 12
ENDMDL
MODEL 9
REMARK VINA RESULT:    -6.385      7.537     11.424
REMARK INTER + INTRA:          -8.554
REMARK INTER:                 -10.212
REMARK INTRA:                   1.658
REMARK UNBOUND:                 1.937
REMARK  12 active torsions:
REMARK  status: ('A' for Active; 'I' for Inactive)
REMARK    1  A    between atoms: S1_1  and  C12_12 
REMARK    2  A    between atoms: S1_1  and  O3_3 
REMARK    3  A    between atoms: S1_1  and  N8_8 
REMARK    4  A    between atoms: O4_4  and  C21_21 
REMARK    5  A    between atoms: O4_4  and  C20_20 
REMARK    6  A    between atoms: O7_7  and  C22_22 
REMARK       I    between atoms: N8_8  and  C15_15 
REMARK    7  A    between atoms: N9_9  and  C24_24 
REMARK       I    between atoms: N9_9  and  C15_15 
REMARK       I    between atoms: N10_10  and  C20_20 
REMARK    8  A    between atoms: N10_10  and  C19_19 
REMARK    9  A    between atoms: C19_19  and  C22_22 
REMARK   10  A    between atoms: C19_19  and  C23_23 
REMARK   11  A    between atoms: C23_23  and  C25_25 
REMARK   12  A    between atoms: C24_24  and  C25_25 
ROOT
HETATM    1  S1  UNK     0      -1.013   5.912  -1.737  1.00  0.00     0.212 S 
HETATM    2  O2  UNK     0      -0.607   4.966  -2.808  1.00  0.00    -0.214 OA
ENDROOT
BRANCH   1   3
HETATM    3  C12 UNK     0      -0.219   5.451  -0.182  1.00  0.00     0.067 A 
HETATM    4  C13 UNK     0      -0.509   6.167   1.021  1.00  0.00     0.025 A 
HETATM    5  C17 UNK     0       0.131   5.792   2.244  1.00  0.00     0.008 A 
HETATM    6  C16 UNK     0       1.057   4.703   2.264  1.00  0.00    -0.062 A 
HETATM    7  C26 UNK     0       1.755   4.298   3.596  1.00  0.00     0.048 C 
HETATM    8  C18 UNK     0       1.344   3.987   1.061  1.00  0.00     0.008 A 
HETATM    9  C14 UNK     0       0.705   4.361  -0.161  1.00  0.00     0.025 A 
ENDBRANCH   1   3
BRANCH   1  10
HETATM   10  O3  UNK     0      -2.488   5.843  -1.574  1.00  0.00    -0.297 OA
HETATM   11  H43 UNK     0      -2.866   5.044  -2.139  1.00  0.00     0.212 HD
ENDBRANCH   1  10
BRANCH   1  12
HETATM   12  N8  UNK     0      -0.573   7.481  -2.180  1.00  0.00     0.016 NA
HETATM   13  C15 UNK     0      -1.160   8.027  -3.355  1.00  0.00     0.704 C 
HETATM   14  N9  UNK     0      -2.067   7.239  -4.118  1.00  0.00    -0.224 N 
HETATM   15  N11 UNK     0      -0.865   9.279  -3.738  1.00  0.00    -0.232 N 
HETATM   16  H33 UNK     0      -2.549   7.649  -4.981  1.00  0.00     0.177 HD
HETATM   17  H35 UNK     0      -0.186   9.869  -3.159  1.00  0.00     0.174 HD
HETATM   18  H29 UNK     0      -1.309   9.686  -4.623  1.00  0.00     0.174 HD
BRANCH  14  19
HETATM   19  C24 UNK     0      -2.344   5.810  -3.692  1.00  0.00     0.158 C 
BRANCH  19  20
HETATM   20  C25 UNK     0      -3.387   5.136  -4.671  1.00  0.00     0.023 C 
BRANCH  20  21
HETATM   21  C23 UNK     0      -4.577   4.528  -3.825  1.00  0.00     0.038 C 
BRANCH  21  22
HETATM   22  C19 UNK     0      -5.644   5.641  -3.490  1.00  0.00     0.184 C 
BRANCH  22  23
HETATM   23  N10 UNK     0      -5.259   6.334  -2.196  1.00  0.00    -0.322 N 
HETATM   24  H34 UNK     0      -4.285   6.773  -2.128  1.00  0.00     0.165 HD
HETATM   25  C20 UNK     0      -6.124   6.430  -1.067  1.00  0.00     0.362 C 
HETATM   26  O5  UNK     0      -7.284   5.975  -1.122  1.00  0.00    -0.238 OA
BRANCH  25  27
HETATM   27  O4  UNK     0      -5.657   7.057   0.104  1.00  0.00    -0.294 OA
BRANCH  27  28
HETATM   28  C21 UNK     0      -5.400   6.359   1.374  1.00  0.00     0.061 C 
HETATM   29  C28 UNK     0      -4.503   7.275   2.296  1.00  0.00     0.046 C 
HETATM   30  C27 UNK     0      -6.762   6.050   2.118  1.00  0.00     0.046 C 
HETATM   31  C29 UNK     0      -4.649   4.996   1.099  1.00  0.00     0.046 C 
ENDBRANCH  27  28
ENDBRANCH  25  27
ENDBRANCH  22  23
BRANCH  22  32
HETATM   32  C22 UNK     0      -5.690   6.679  -4.653  1.00  0.00     0.163 C 
HETATM   33  O6  UNK     0      -6.227   6.378  -5.740  1.00  0.00    -0.648 OA
BRANCH  32  34
HETATM   34  O7  UNK     0      -5.137   7.953  -4.475  1.00  0.00    -0.775 OA
HETATM   35  H31 UNK     0      -4.612   7.984  -3.566  1.00  0.00     0.167 HD
ENDBRANCH  32  34
ENDBRANCH  22  32
ENDBRANCH  21  22
ENDBRANCH  20  21
ENDBRANCH  19  20
ENDBRANCH  14  19
ENDBRANCH   1  12
TORSDOF 12
ENDMDL
