MODEL 4
REMARK VINA RESULT:    -5.678      2.379      4.180
REMARK INTER + INTRA:         -11.803
REMARK INTER:                  -9.140
REMARK INTRA:                  -2.663
REMARK UNBOUND:                -2.639
REMARK  11 active torsions:
REMARK  status: ('A' for Active; 'I' for Inactive)
REMARK    1  A    between atoms: S1_1  and  C20_20 
REMARK    2  A    between atoms: S1_1  and  N8_8 
REMARK    3  A    between atoms: O5_5  and  C19_19 
REMARK    4  A    between atoms: N7_7  and  C12_12 
REMARK       I    between atoms: N7_7  and  C16_16 
REMARK    5  A    between atoms: N8_8  and  C15_15 
REMARK    6  A    between atoms: N9_9  and  C17_17 
REMARK       I    between atoms: N9_9  and  C26_26 
REMARK       I    between atoms: N10_10  and  C26_26 
REMARK       I    between atoms: N11_11  and  C26_26 
REMARK    7  A    between atoms: C12_12  and  C19_19 
REMARK    8  A    between atoms: C12_12  and  C13_13 
REMARK    9  A    between atoms: C13_13  and  C14_14 
REMARK   10  A    between atoms: C14_14  and  C17_17 
REMARK   11  A    between atoms: C15_15  and  C16_16 
ROOT
HETATM    1  S1  UNK     0      -0.155   1.531  -3.115  1.00  0.00     0.242 S 
HETATM    2  O3  UNK     0       0.977   1.534  -4.085  1.00  0.00    -0.206 OA
HETATM    3  O4  UNK     0      -0.353   0.142  -2.613  1.00  0.00    -0.206 OA
ENDROOT
BRANCH   1   4
HETATM    4  C20 UNK     0       0.238   2.616  -1.717  1.00  0.00     0.074 A 
HETATM    5  C21 UNK     0       0.935   2.090  -0.578  1.00  0.00     0.025 A 
HETATM    6  C24 UNK     0       1.234   2.941   0.537  1.00  0.00     0.008 A 
HETATM    7  C23 UNK     0       0.835   4.317   0.514  1.00  0.00    -0.062 A 
HETATM    8  C25 UNK     0       0.140   4.846  -0.624  1.00  0.00     0.008 A 
HETATM    9  C27 UNK     0       1.161   5.235   1.732  1.00  0.00     0.048 C 
HETATM   10  C22 UNK     0      -0.158   3.993  -1.740  1.00  0.00     0.025 A 
ENDBRANCH   1   4
BRANCH   1  11
HETATM   11  N8  UNK     0      -1.570   2.035  -3.903  1.00  0.00    -0.202 NA
HETATM   12  H32 UNK     0      -2.061   2.816  -3.361  1.00  0.00     0.140 HD
BRANCH  11  13
HETATM   13  C15 UNK     0      -1.022   2.541  -5.229  1.00  0.00     0.159 C 
HETATM   14  C18 UNK     0      -1.785   1.823  -6.415  1.00  0.00     0.037 C 
BRANCH  13  15
HETATM   15  C16 UNK     0      -1.226   4.088  -5.347  1.00  0.00     0.236 C 
HETATM   16  O2  UNK     0      -0.504   4.770  -6.110  1.00  0.00    -0.272 OA
HETATM   17  N7  UNK     0      -2.267   4.704  -4.584  1.00  0.00    -0.345 N 
HETATM   18  H31 UNK     0      -2.856   4.077  -3.949  1.00  0.00     0.163 HD
BRANCH  17  19
HETATM   19  C12 UNK     0      -2.595   6.191  -4.611  1.00  0.00     0.182 C 
BRANCH  19  20
HETATM   20  C19 UNK     0      -1.934   6.879  -3.375  1.00  0.00     0.163 C 
HETATM   21  O6  UNK     0      -0.742   7.261  -3.432  1.00  0.00    -0.648 OA
BRANCH  20  22
HETATM   22  O5  UNK     0      -2.679   7.074  -2.198  1.00  0.00    -0.775 OA
HETATM   23  H1  UNK     0      -2.380   7.970  -1.738  1.00  0.00     0.167 HD
ENDBRANCH  20  22
ENDBRANCH  19  20
BRANCH  19  24
HETATM   24  C13 UNK     0      -4.168   6.399  -4.552  1.00  0.00     0.039 C 
BRANCH  24  25
HETATM   25  C14 UNK     0      -4.946   5.040  -4.832  1.00  0.00     0.036 C 
BRANCH  25  26
HETATM   26  C17 UNK     0      -5.736   4.635  -3.517  1.00  0.00     0.222 C 
BRANCH  26  27
HETATM   27  N9  UNK     0      -4.798   4.480  -2.329  1.00  0.00    -0.416 NA
HETATM   28  C26 UNK     0      -3.943   3.930  -1.449  1.00  0.00     0.240 C 
HETATM   29  N10 UNK     0      -3.541   2.566  -1.586  1.00  0.00    -0.360 N 
HETATM   30  N11 UNK     0      -3.443   4.714  -0.366  1.00  0.00    -0.360 N 
HETATM   31  H34 UNK     0      -3.921   1.975  -2.393  1.00  0.00     0.160 HD
HETATM   32  H33 UNK     0      -2.861   2.135  -0.881  1.00  0.00     0.160 HD
HETATM   33  H35 UNK     0      -3.749   5.734  -0.258  1.00  0.00     0.160 HD
HETATM   34  H36 UNK     0      -2.763   4.282   0.338  1.00  0.00     0.160 HD
ENDBRANCH  26  27
ENDBRANCH  25  26
ENDBRANCH  24  25
ENDBRANCH  19  24
ENDBRANCH  17  19
ENDBRANCH  13  15
ENDBRANCH  11  13
ENDBRANCH   1  11
TORSDOF 11
ENDMDL
