MODEL 2
REMARK VINA RESULT:    -5.922      2.974      6.884
REMARK INTER + INTRA:         -10.907
REMARK INTER:                  -9.313
REMARK INTRA:                  -1.594
REMARK UNBOUND:                -1.696
REMARK  10 active torsions:
REMARK  status: ('A' for Active; 'I' for Inactive)
REMARK    1  A    between atoms: S1_1  and  C15_15 
REMARK    2  A    between atoms: S1_1  and  N7_7 
REMARK    3  A    between atoms: O4_4  and  C16_16 
REMARK    4  A    between atoms: O6_6  and  C22_22 
REMARK    5  A    between atoms: N7_7  and  C12_12 
REMARK    6  A    between atoms: N8_8  and  C14_14 
REMARK       I    between atoms: N9_9  and  C21_21 
REMARK       I    between atoms: N10_10  and  C21_21 
REMARK    7  A    between atoms: C11_11  and  C12_12 
REMARK    8  A    between atoms: C11_11  and  C13_13 
REMARK    9  A    between atoms: C12_12  and  C16_16 
REMARK   10  A    between atoms: C13_13  and  C14_14 
ROOT
HETATM    1  S1  UNK     0      -4.687   6.156  -2.233  1.00  0.00     0.242 S 
HETATM    2  O2  UNK     0      -5.686   6.703  -3.202  1.00  0.00    -0.206 OA
HETATM    3  O3  UNK     0      -3.489   7.054  -2.215  1.00  0.00    -0.206 OA
ENDROOT
BRANCH   1   4
HETATM    4  C15 UNK     0      -5.422   6.096  -0.578  1.00  0.00     0.074 A 
HETATM    5  C18 UNK     0      -6.775   6.539  -0.379  1.00  0.00     0.027 A 
HETATM    6  C20 UNK     0      -7.362   6.480   0.934  1.00  0.00     0.038 A 
HETATM    7  C22 UNK     0      -6.596   5.979   2.044  1.00  0.00     0.068 A 
HETATM    8  C19 UNK     0      -5.238   5.541   1.841  1.00  0.00     0.038 A 
HETATM    9  C17 UNK     0      -4.651   5.598   0.529  1.00  0.00     0.027 A 
BRANCH   7  10
HETATM   10  O6  UNK     0      -7.189   5.921   3.329  1.00  0.00    -0.356 OA
HETATM   11  C23 UNK     0      -6.423   6.251   4.548  1.00  0.00     0.210 C 
ENDBRANCH   7  10
ENDBRANCH   1   4
BRANCH   1  12
HETATM   12  N7  UNK     0      -4.218   4.585  -2.685  1.00  0.00    -0.201 NA
HETATM   13  H26 UNK     0      -3.487   4.189  -2.011  1.00  0.00     0.141 HD
BRANCH  12  14
HETATM   14  C12 UNK     0      -5.532   3.818  -2.589  1.00  0.00     0.169 C 
BRANCH  14  15
HETATM   15  C11 UNK     0      -6.014   3.394  -4.044  1.00  0.00     0.033 C 
BRANCH  15  16
HETATM   16  C13 UNK     0      -4.747   2.948  -4.896  1.00  0.00     0.024 C 
BRANCH  16  17
HETATM   17  C14 UNK     0      -4.528   3.943  -6.115  1.00  0.00     0.169 C 
BRANCH  17  18
HETATM   18  N8  UNK     0      -3.688   5.156  -5.722  1.00  0.00    -0.108 NA
HETATM   19  C21 UNK     0      -4.227   6.387  -5.841  1.00  0.00     0.686 C 
HETATM   20  N9  UNK     0      -3.469   7.550  -5.481  1.00  0.00    -0.234 N 
HETATM   21  N10 UNK     0      -5.566   6.526  -6.334  1.00  0.00    -0.234 N 
HETATM   22  H27 UNK     0      -2.469   7.444  -5.116  1.00  0.00     0.174 HD
HETATM   23  H28 UNK     0      -3.903   8.522  -5.579  1.00  0.00     0.174 HD
HETATM   24  H29 UNK     0      -6.129   5.657  -6.604  1.00  0.00     0.174 HD
HETATM   25  H30 UNK     0      -6.002   7.498  -6.432  1.00  0.00     0.174 HD
ENDBRANCH  17  18
ENDBRANCH  16  17
ENDBRANCH  15  16
ENDBRANCH  14  15
BRANCH  14  26
HETATM   26  C16 UNK     0      -5.323   2.529  -1.712  1.00  0.00     0.159 C 
HETATM   27  O5  UNK     0      -4.191   2.259  -1.239  1.00  0.00    -0.649 OA
BRANCH  26  28
HETATM   28  O4  UNK     0      -6.414   1.670  -1.454  1.00  0.00    -0.775 OA
HETATM   29  H2  UNK     0      -6.099   0.671  -1.528  1.00  0.00     0.167 HD
ENDBRANCH  26  28
ENDBRANCH  14  26
ENDBRANCH  12  14
ENDBRANCH   1  12
TORSDOF 10
ENDMDL
