MODEL 1
REMARK VINA RESULT:    -6.073      0.000      0.000
REMARK INTER + INTRA:         -11.141
REMARK INTER:                  -9.445
REMARK INTRA:                  -1.696
REMARK UNBOUND:                -1.696
REMARK  10 active torsions:
REMARK  status: ('A' for Active; 'I' for Inactive)
REMARK    1  A    between atoms: S1_1  and  C15_15 
REMARK    2  A    between atoms: S1_1  and  N7_7 
REMARK    3  A    between atoms: O4_4  and  C16_16 
REMARK    4  A    between atoms: O6_6  and  C22_22 
REMARK    5  A    between atoms: N7_7  and  C12_12 
REMARK    6  A    between atoms: N8_8  and  C14_14 
REMARK       I    between atoms: N9_9  and  C21_21 
REMARK       I    between atoms: N10_10  and  C21_21 
REMARK    7  A    between atoms: C11_11  and  C12_12 
REMARK    8  A    between atoms: C11_11  and  C13_13 
REMARK    9  A    between atoms: C12_12  and  C16_16 
REMARK   10  A    between atoms: C13_13  and  C14_14 
ROOT
HETATM    1  S1  UNK     0      -5.358   2.792  -1.731  1.00  0.00     0.242 S 
HETATM    2  O2  UNK     0      -6.448   1.782  -1.902  1.00  0.00    -0.206 OA
HETATM    3  O3  UNK     0      -4.173   2.123  -1.107  1.00  0.00    -0.206 OA
ENDROOT
BRANCH   1   4
HETATM    4  C15 UNK     0      -4.893   3.459  -3.350  1.00  0.00     0.074 A 
HETATM    5  C18 UNK     0      -5.822   4.280  -4.079  1.00  0.00     0.027 A 
HETATM    6  C20 UNK     0      -5.448   4.818  -5.360  1.00  0.00     0.038 A 
HETATM    7  C22 UNK     0      -4.148   4.535  -5.910  1.00  0.00     0.068 A 
HETATM    8  C19 UNK     0      -3.224   3.707  -5.178  1.00  0.00     0.038 A 
HETATM    9  C17 UNK     0      -3.595   3.169  -3.897  1.00  0.00     0.027 A 
BRANCH   7  10
HETATM   10  O6  UNK     0      -3.792   5.077  -7.169  1.00  0.00    -0.356 OA
HETATM   11  C23 UNK     0      -2.381   5.309  -7.538  1.00  0.00     0.210 C 
ENDBRANCH   7  10
ENDBRANCH   1   4
BRANCH   1  12
HETATM   12  N7  UNK     0      -5.883   4.070  -0.739  1.00  0.00    -0.201 NA
HETATM   13  H26 UNK     0      -6.169   3.717   0.230  1.00  0.00     0.141 HD
BRANCH  12  14
HETATM   14  C12 UNK     0      -4.639   4.948  -0.662  1.00  0.00     0.169 C 
BRANCH  14  15
HETATM   15  C11 UNK     0      -4.998   6.430  -1.115  1.00  0.00     0.033 C 
BRANCH  15  16
HETATM   16  C13 UNK     0      -6.579   6.603  -1.100  1.00  0.00     0.024 C 
BRANCH  16  17
HETATM   17  C14 UNK     0      -7.066   7.066   0.339  1.00  0.00     0.169 C 
BRANCH  17  18
HETATM   18  N8  UNK     0      -7.739   5.933   1.110  1.00  0.00    -0.108 NA
HETATM   19  C21 UNK     0      -7.330   5.669   2.369  1.00  0.00     0.686 C 
HETATM   20  N9  UNK     0      -7.938   4.614   3.124  1.00  0.00    -0.234 N 
HETATM   21  N10 UNK     0      -6.278   6.454   2.947  1.00  0.00    -0.234 N 
HETATM   22  H27 UNK     0      -8.722   4.028   2.690  1.00  0.00     0.174 HD
HETATM   23  H28 UNK     0      -7.609   4.411   4.121  1.00  0.00     0.174 HD
HETATM   24  H29 UNK     0      -5.824   7.240   2.381  1.00  0.00     0.174 HD
HETATM   25  H30 UNK     0      -5.947   6.252   3.945  1.00  0.00     0.174 HD
ENDBRANCH  17  18
ENDBRANCH  16  17
ENDBRANCH  15  16
ENDBRANCH  14  15
BRANCH  14  26
HETATM   26  C16 UNK     0      -4.105   4.970   0.818  1.00  0.00     0.159 C 
HETATM   27  O5  UNK     0      -3.583   6.011   1.289  1.00  0.00    -0.649 OA
BRANCH  26  28
HETATM   28  O4  UNK     0      -4.213   3.813   1.621  1.00  0.00    -0.775 OA
HETATM   29  H2  UNK     0      -4.756   4.040   2.490  1.00  0.00     0.167 HD
ENDBRANCH  26  28
ENDBRANCH  14  26
ENDBRANCH  12  14
ENDBRANCH   1  12
TORSDOF 10
ENDMDL
MODEL 2
REMARK VINA RESULT:    -5.922      2.974      6.884
REMARK INTER + INTRA:         -10.907
REMARK INTER:                  -9.313
REMARK INTRA:                  -1.594
REMARK UNBOUND:                -1.696
REMARK  10 active torsions:
REMARK  status: ('A' for Active; 'I' for Inactive)
REMARK    1  A    between atoms: S1_1  and  C15_15 
REMARK    2  A    between atoms: S1_1  and  N7_7 
REMARK    3  A    between atoms: O4_4  and  C16_16 
REMARK    4  A    between atoms: O6_6  and  C22_22 
REMARK    5  A    between atoms: N7_7  and  C12_12 
REMARK    6  A    between atoms: N8_8  and  C14_14 
REMARK       I    between atoms: N9_9  and  C21_21 
REMARK       I    between atoms: N10_10  and  C21_21 
REMARK    7  A    between atoms: C11_11  and  C12_12 
REMARK    8  A    between atoms: C11_11  and  C13_13 
REMARK    9  A    between atoms: C12_12  and  C16_16 
REMARK   10  A    between atoms: C13_13  and  C14_14 
ROOT
HETATM    1  S1  UNK     0      -4.687   6.156  -2.233  1.00  0.00     0.242 S 
HETATM    2  O2  UNK     0      -5.686   6.703  -3.202  1.00  0.00    -0.206 OA
HETATM    3  O3  UNK     0      -3.489   7.054  -2.215  1.00  0.00    -0.206 OA
ENDROOT
BRANCH   1   4
HETATM    4  C15 UNK     0      -5.422   6.096  -0.578  1.00  0.00     0.074 A 
HETATM    5  C18 UNK     0      -6.775   6.539  -0.379  1.00  0.00     0.027 A 
HETATM    6  C20 UNK     0      -7.362   6.480   0.934  1.00  0.00     0.038 A 
HETATM    7  C22 UNK     0      -6.596   5.979   2.044  1.00  0.00     0.068 A 
HETATM    8  C19 UNK     0      -5.238   5.541   1.841  1.00  0.00     0.038 A 
HETATM    9  C17 UNK     0      -4.651   5.598   0.529  1.00  0.00     0.027 A 
BRANCH   7  10
HETATM   10  O6  UNK     0      -7.189   5.921   3.329  1.00  0.00    -0.356 OA
HETATM   11  C23 UNK     0      -6.423   6.251   4.548  1.00  0.00     0.210 C 
ENDBRANCH   7  10
ENDBRANCH   1   4
BRANCH   1  12
HETATM   12  N7  UNK     0      -4.218   4.585  -2.685  1.00  0.00    -0.201 NA
HETATM   13  H26 UNK     0      -3.487   4.189  -2.011  1.00  0.00     0.141 HD
BRANCH  12  14
HETATM   14  C12 UNK     0      -5.532   3.818  -2.589  1.00  0.00     0.169 C 
BRANCH  14  15
HETATM   15  C11 UNK     0      -6.014   3.394  -4.044  1.00  0.00     0.033 C 
BRANCH  15  16
HETATM   16  C13 UNK     0      -4.747   2.948  -4.896  1.00  0.00     0.024 C 
BRANCH  16  17
HETATM   17  C14 UNK     0      -4.528   3.943  -6.115  1.00  0.00     0.169 C 
BRANCH  17  18
HETATM   18  N8  UNK     0      -3.688   5.156  -5.722  1.00  0.00    -0.108 NA
HETATM   19  C21 UNK     0      -4.227   6.387  -5.841  1.00  0.00     0.686 C 
HETATM   20  N9  UNK     0      -3.469   7.550  -5.481  1.00  0.00    -0.234 N 
HETATM   21  N10 UNK     0      -5.566   6.526  -6.334  1.00  0.00    -0.234 N 
HETATM   22  H27 UNK     0      -2.469   7.444  -5.116  1.00  0.00     0.174 HD
HETATM   23  H28 UNK     0      -3.903   8.522  -5.579  1.00  0.00     0.174 HD
HETATM   24  H29 UNK     0      -6.129   5.657  -6.604  1.00  0.00     0.174 HD
HETATM   25  H30 UNK     0      -6.002   7.498  -6.432  1.00  0.00     0.174 HD
ENDBRANCH  17  18
ENDBRANCH  16  17
ENDBRANCH  15  16
ENDBRANCH  14  15
BRANCH  14  26
HETATM   26  C16 UNK     0      -5.323   2.529  -1.712  1.00  0.00     0.159 C 
HETATM   27  O5  UNK     0      -4.191   2.259  -1.239  1.00  0.00    -0.649 OA
BRANCH  26  28
HETATM   28  O4  UNK     0      -6.414   1.670  -1.454  1.00  0.00    -0.775 OA
HETATM   29  H2  UNK     0      -6.099   0.671  -1.528  1.00  0.00     0.167 HD
ENDBRANCH  26  28
ENDBRANCH  14  26
ENDBRANCH  12  14
ENDBRANCH   1  12
TORSDOF 10
ENDMDL
MODEL 3
REMARK VINA RESULT:    -5.674     11.636     14.549
REMARK INTER + INTRA:         -10.522
REMARK INTER:                  -9.726
REMARK INTRA:                  -0.796
REMARK UNBOUND:                -1.696
REMARK  10 active torsions:
REMARK  status: ('A' for Active; 'I' for Inactive)
REMARK    1  A    between atoms: S1_1  and  C15_15 
REMARK    2  A    between atoms: S1_1  and  N7_7 
REMARK    3  A    between atoms: O4_4  and  C16_16 
REMARK    4  A    between atoms: O6_6  and  C22_22 
REMARK    5  A    between atoms: N7_7  and  C12_12 
REMARK    6  A    between atoms: N8_8  and  C14_14 
REMARK       I    between atoms: N9_9  and  C21_21 
REMARK       I    between atoms: N10_10  and  C21_21 
REMARK    7  A    between atoms: C11_11  and  C12_12 
REMARK    8  A    between atoms: C11_11  and  C13_13 
REMARK    9  A    between atoms: C12_12  and  C16_16 
REMARK   10  A    between atoms: C13_13  and  C14_14 
ROOT
HETATM    1  S1  UNK     0       0.730   4.756  10.539  1.00  0.00     0.242 S 
HETATM    2  O2  UNK     0       0.256   5.187  11.891  1.00  0.00    -0.206 OA
HETATM    3  O3  UNK     0       1.161   3.324  10.611  1.00  0.00    -0.206 OA
ENDROOT
BRANCH   1   4
HETATM    4  C15 UNK     0      -0.623   4.922   9.345  1.00  0.00     0.074 A 
HETATM    5  C18 UNK     0      -1.872   4.250   9.581  1.00  0.00     0.027 A 
HETATM    6  C20 UNK     0      -2.950   4.391   8.638  1.00  0.00     0.038 A 
HETATM    7  C22 UNK     0      -2.777   5.202   7.461  1.00  0.00     0.068 A 
HETATM    8  C19 UNK     0      -1.521   5.868   7.227  1.00  0.00     0.038 A 
HETATM    9  C17 UNK     0      -0.443   5.729   8.169  1.00  0.00     0.027 A 
BRANCH   7  10
HETATM   10  O6  UNK     0      -3.848   5.337   6.545  1.00  0.00    -0.356 OA
HETATM   11  C23 UNK     0      -5.196   4.818   6.852  1.00  0.00     0.210 C 
ENDBRANCH   7  10
ENDBRANCH   1   4
BRANCH   1  12
HETATM   12  N7  UNK     0       2.035   5.722  10.031  1.00  0.00    -0.201 NA
HETATM   13  H26 UNK     0       1.756   6.349   9.209  1.00  0.00     0.141 HD
BRANCH  12  14
HETATM   14  C12 UNK     0       2.330   6.545  11.279  1.00  0.00     0.169 C 
BRANCH  14  15
HETATM   15  C11 UNK     0       3.892   6.533  11.574  1.00  0.00     0.033 C 
BRANCH  15  16
HETATM   16  C13 UNK     0       4.276   5.147  12.254  1.00  0.00     0.024 C 
BRANCH  16  17
HETATM   17  C14 UNK     0       5.013   4.208  11.208  1.00  0.00     0.169 C 
BRANCH  17  18
HETATM   18  N8  UNK     0       6.502   4.528  11.099  1.00  0.00    -0.108 NA
HETATM   19  C21 UNK     0       7.330   3.603  10.568  1.00  0.00     0.686 C 
HETATM   20  N9  UNK     0       8.733   3.867  10.448  1.00  0.00    -0.234 N 
HETATM   21  N10 UNK     0       6.793   2.349  10.124  1.00  0.00    -0.234 N 
HETATM   22  H27 UNK     0       9.132   4.803  10.782  1.00  0.00     0.174 HD
HETATM   23  H28 UNK     0       9.383   3.130  10.026  1.00  0.00     0.174 HD
HETATM   24  H29 UNK     0       5.746   2.153  10.216  1.00  0.00     0.174 HD
HETATM   25  H30 UNK     0       7.441   1.610   9.702  1.00  0.00     0.174 HD
ENDBRANCH  17  18
ENDBRANCH  16  17
ENDBRANCH  15  16
ENDBRANCH  14  15
BRANCH  14  26
HETATM   26  C16 UNK     0       1.853   8.027  11.053  1.00  0.00     0.159 C 
HETATM   27  O5  UNK     0       2.685   8.928  10.780  1.00  0.00    -0.649 OA
BRANCH  26  28
HETATM   28  O4  UNK     0       0.480   8.348  11.158  1.00  0.00    -0.775 OA
HETATM   29  H2  UNK     0       0.066   7.848  11.983  1.00  0.00     0.167 HD
ENDBRANCH  26  28
ENDBRANCH  14  26
ENDBRANCH  12  14
ENDBRANCH   1  12
TORSDOF 10
ENDMDL
MODEL 4
REMARK VINA RESULT:    -5.604      3.834      5.418
REMARK INTER + INTRA:         -10.412
REMARK INTER:                  -9.146
REMARK INTRA:                  -1.266
REMARK UNBOUND:                -1.696
REMARK  10 active torsions:
REMARK  status: ('A' for Active; 'I' for Inactive)
REMARK    1  A    between atoms: S1_1  and  C15_15 
REMARK    2  A    between atoms: S1_1  and  N7_7 
REMARK    3  A    between atoms: O4_4  and  C16_16 
REMARK    4  A    between atoms: O6_6  and  C22_22 
REMARK    5  A    between atoms: N7_7  and  C12_12 
REMARK    6  A    between atoms: N8_8  and  C14_14 
REMARK       I    between atoms: N9_9  and  C21_21 
REMARK       I    between atoms: N10_10  and  C21_21 
REMARK    7  A    between atoms: C11_11  and  C12_12 
REMARK    8  A    between atoms: C11_11  and  C13_13 
REMARK    9  A    between atoms: C12_12  and  C16_16 
REMARK   10  A    between atoms: C13_13  and  C14_14 
ROOT
HETATM    1  S1  UNK     0      -2.253   2.543  -3.239  1.00  0.00     0.242 S 
HETATM    2  O2  UNK     0      -1.432   1.805  -4.248  1.00  0.00    -0.206 OA
HETATM    3  O3  UNK     0      -2.107   1.871  -1.910  1.00  0.00    -0.206 OA
ENDROOT
BRANCH   1   4
HETATM    4  C15 UNK     0      -1.668   4.253  -3.120  1.00  0.00     0.074 A 
HETATM    5  C18 UNK     0      -1.270   4.787  -1.845  1.00  0.00     0.027 A 
HETATM    6  C20 UNK     0      -0.795   6.142  -1.753  1.00  0.00     0.038 A 
HETATM    7  C22 UNK     0      -0.718   6.961  -2.934  1.00  0.00     0.068 A 
HETATM    8  C19 UNK     0      -1.123   6.423  -4.208  1.00  0.00     0.038 A 
HETATM    9  C17 UNK     0      -1.597   5.069  -4.302  1.00  0.00     0.027 A 
BRANCH   7  10
HETATM   10  O6  UNK     0      -0.242   8.291  -2.829  1.00  0.00    -0.356 OA
HETATM   11  C23 UNK     0      -1.138   9.448  -3.026  1.00  0.00     0.210 C 
ENDBRANCH   7  10
ENDBRANCH   1   4
BRANCH   1  12
HETATM   12  N7  UNK     0      -3.891   2.553  -3.700  1.00  0.00    -0.201 NA
HETATM   13  H26 UNK     0      -4.307   1.567  -3.673  1.00  0.00     0.141 HD
BRANCH  12  14
HETATM   14  C12 UNK     0      -4.518   3.447  -2.636  1.00  0.00     0.169 C 
BRANCH  14  15
HETATM   15  C11 UNK     0      -5.619   4.382  -3.300  1.00  0.00     0.033 C 
BRANCH  15  16
HETATM   16  C13 UNK     0      -5.648   5.772  -2.526  1.00  0.00     0.024 C 
BRANCH  16  17
HETATM   17  C14 UNK     0      -5.798   6.971  -3.556  1.00  0.00     0.169 C 
BRANCH  17  18
HETATM   18  N8  UNK     0      -4.612   7.056  -4.515  1.00  0.00    -0.108 NA
HETATM   19  C21 UNK     0      -4.832   6.897  -5.837  1.00  0.00     0.686 C 
HETATM   20  N9  UNK     0      -3.745   6.970  -6.768  1.00  0.00    -0.234 N 
HETATM   21  N10 UNK     0      -6.165   6.650  -6.305  1.00  0.00    -0.234 N 
HETATM   22  H27 UNK     0      -2.751   7.153  -6.416  1.00  0.00     0.174 HD
HETATM   23  H28 UNK     0      -3.927   6.843  -7.814  1.00  0.00     0.174 HD
HETATM   24  H29 UNK     0      -6.975   6.593  -5.608  1.00  0.00     0.174 HD
HETATM   25  H30 UNK     0      -6.349   6.522  -7.351  1.00  0.00     0.174 HD
ENDBRANCH  17  18
ENDBRANCH  16  17
ENDBRANCH  15  16
ENDBRANCH  14  15
BRANCH  14  26
HETATM   26  C16 UNK     0      -5.191   2.553  -1.531  1.00  0.00     0.159 C 
HETATM   27  O5  UNK     0      -6.323   2.046  -1.726  1.00  0.00    -0.649 OA
BRANCH  26  28
HETATM   28  O4  UNK     0      -4.517   2.317  -0.311  1.00  0.00    -0.775 OA
HETATM   29  H2  UNK     0      -5.220   2.151   0.451  1.00  0.00     0.167 HD
ENDBRANCH  26  28
ENDBRANCH  14  26
ENDBRANCH  12  14
ENDBRANCH   1  12
TORSDOF 10
ENDMDL
MODEL 5
REMARK VINA RESULT:    -5.601     12.616     15.778
REMARK INTER + INTRA:         -10.407
REMARK INTER:                  -9.738
REMARK INTRA:                  -0.669
REMARK UNBOUND:                -1.696
REMARK  10 active torsions:
REMARK  status: ('A' for Active; 'I' for Inactive)
REMARK    1  A    between atoms: S1_1  and  C15_15 
REMARK    2  A    between atoms: S1_1  and  N7_7 
REMARK    3  A    between atoms: O4_4  and  C16_16 
REMARK    4  A    between atoms: O6_6  and  C22_22 
REMARK    5  A    between atoms: N7_7  and  C12_12 
REMARK    6  A    between atoms: N8_8  and  C14_14 
REMARK       I    between atoms: N9_9  and  C21_21 
REMARK       I    between atoms: N10_10  and  C21_21 
REMARK    7  A    between atoms: C11_11  and  C12_12 
REMARK    8  A    between atoms: C11_11  and  C13_13 
REMARK    9  A    between atoms: C12_12  and  C16_16 
REMARK   10  A    between atoms: C13_13  and  C14_14 
ROOT
HETATM    1  S1  UNK     0       1.510   7.991  11.541  1.00  0.00     0.242 S 
HETATM    2  O2  UNK     0       1.323   7.336  12.872  1.00  0.00    -0.206 OA
HETATM    3  O3  UNK     0       0.170   8.177  10.900  1.00  0.00    -0.206 OA
ENDROOT
BRANCH   1   4
HETATM    4  C15 UNK     0       2.302   9.604  11.769  1.00  0.00     0.074 A 
HETATM    5  C18 UNK     0       1.664  10.607  12.579  1.00  0.00     0.027 A 
HETATM    6  C20 UNK     0       2.298  11.884  12.768  1.00  0.00     0.038 A 
HETATM    7  C22 UNK     0       3.568  12.158  12.148  1.00  0.00     0.068 A 
HETATM    8  C19 UNK     0       4.200  11.152  11.332  1.00  0.00     0.038 A 
HETATM    9  C17 UNK     0       3.568   9.875  11.143  1.00  0.00     0.027 A 
BRANCH   7  10
HETATM   10  O6  UNK     0       4.183  13.417  12.348  1.00  0.00    -0.356 OA
HETATM   11  C23 UNK     0       5.236  13.915  11.440  1.00  0.00     0.210 C 
ENDBRANCH   7  10
ENDBRANCH   1   4
BRANCH   1  12
HETATM   12  N7  UNK     0       2.496   7.031  10.540  1.00  0.00    -0.201 NA
HETATM   13  H26 UNK     0       3.515   7.356  10.571  1.00  0.00     0.141 HD
BRANCH  12  14
HETATM   14  C12 UNK     0       2.337   5.649  11.163  1.00  0.00     0.169 C 
BRANCH  14  15
HETATM   15  C11 UNK     0       1.810   4.622  10.069  1.00  0.00     0.033 C 
BRANCH  15  16
HETATM   16  C13 UNK     0       0.261   4.357  10.317  1.00  0.00     0.024 C 
BRANCH  16  17
HETATM   17  C14 UNK     0      -0.613   5.284   9.370  1.00  0.00     0.169 C 
BRANCH  17  18
HETATM   18  N8  UNK     0      -1.379   4.476   8.324  1.00  0.00    -0.108 NA
HETATM   19  C21 UNK     0      -2.657   4.127   8.581  1.00  0.00     0.686 C 
HETATM   20  N9  UNK     0      -3.409   3.370   7.624  1.00  0.00    -0.234 N 
HETATM   21  N10 UNK     0      -3.259   4.517   9.822  1.00  0.00    -0.234 N 
HETATM   22  H27 UNK     0      -2.957   3.077   6.699  1.00  0.00     0.174 HD
HETATM   23  H28 UNK     0      -4.422   3.096   7.835  1.00  0.00     0.174 HD
HETATM   24  H29 UNK     0      -2.696   5.080  10.536  1.00  0.00     0.174 HD
HETATM   25  H30 UNK     0      -4.272   4.244  10.035  1.00  0.00     0.174 HD
ENDBRANCH  17  18
ENDBRANCH  16  17
ENDBRANCH  15  16
ENDBRANCH  14  15
BRANCH  14  26
HETATM   26  C16 UNK     0       3.728   5.159  11.712  1.00  0.00     0.159 C 
HETATM   27  O5  UNK     0       4.655   4.864  10.918  1.00  0.00    -0.649 OA
BRANCH  26  28
HETATM   28  O4  UNK     0       3.936   5.052  13.105  1.00  0.00    -0.775 OA
HETATM   29  H2  UNK     0       3.411   4.222  13.475  1.00  0.00     0.167 HD
ENDBRANCH  26  28
ENDBRANCH  14  26
ENDBRANCH  12  14
ENDBRANCH   1  12
TORSDOF 10
ENDMDL
MODEL 6
REMARK VINA RESULT:    -5.585      3.816      6.191
REMARK INTER + INTRA:         -10.384
REMARK INTER:                  -9.306
REMARK INTRA:                  -1.078
REMARK UNBOUND:                -1.696
REMARK  10 active torsions:
REMARK  status: ('A' for Active; 'I' for Inactive)
REMARK    1  A    between atoms: S1_1  and  C15_15 
REMARK    2  A    between atoms: S1_1  and  N7_7 
REMARK    3  A    between atoms: O4_4  and  C16_16 
REMARK    4  A    between atoms: O6_6  and  C22_22 
REMARK    5  A    between atoms: N7_7  and  C12_12 
REMARK    6  A    between atoms: N8_8  and  C14_14 
REMARK       I    between atoms: N9_9  and  C21_21 
REMARK       I    between atoms: N10_10  and  C21_21 
REMARK    7  A    between atoms: C11_11  and  C12_12 
REMARK    8  A    between atoms: C11_11  and  C13_13 
REMARK    9  A    between atoms: C12_12  and  C16_16 
REMARK   10  A    between atoms: C13_13  and  C14_14 
ROOT
HETATM    1  S1  UNK     0      -1.823   3.012  -2.265  1.00  0.00     0.242 S 
HETATM    2  O2  UNK     0      -1.185   3.012  -3.617  1.00  0.00    -0.206 OA
HETATM    3  O3  UNK     0      -2.257   1.618  -1.935  1.00  0.00    -0.206 OA
ENDROOT
BRANCH   1   4
HETATM    4  C15 UNK     0      -0.624   3.579  -1.032  1.00  0.00     0.074 A 
HETATM    5  C18 UNK     0       0.552   2.796  -0.762  1.00  0.00     0.027 A 
HETATM    6  C20 UNK     0       1.509   3.253   0.210  1.00  0.00     0.038 A 
HETATM    7  C22 UNK     0       1.291   4.492   0.910  1.00  0.00     0.068 A 
HETATM    8  C19 UNK     0       0.109   5.270   0.640  1.00  0.00     0.038 A 
HETATM    9  C17 UNK     0      -0.848   4.815  -0.332  1.00  0.00     0.027 A 
BRANCH   7  10
HETATM   10  O6  UNK     0       2.245   4.932   1.859  1.00  0.00    -0.356 OA
HETATM   11  C23 UNK     0       1.956   4.918   3.307  1.00  0.00     0.210 C 
ENDBRANCH   7  10
ENDBRANCH   1   4
BRANCH   1  12
HETATM   12  N7  UNK     0      -3.170   4.051  -2.243  1.00  0.00    -0.201 NA
HETATM   13  H26 UNK     0      -3.590   4.162  -3.221  1.00  0.00     0.141 HD
BRANCH  12  14
HETATM   14  C12 UNK     0      -4.125   3.319  -1.309  1.00  0.00     0.169 C 
BRANCH  14  15
HETATM   15  C11 UNK     0      -4.613   4.302  -0.158  1.00  0.00     0.033 C 
BRANCH  15  16
HETATM   16  C13 UNK     0      -5.956   5.015  -0.627  1.00  0.00     0.024 C 
BRANCH  16  17
HETATM   17  C14 UNK     0      -5.639   6.466  -1.188  1.00  0.00     0.169 C 
BRANCH  17  18
HETATM   18  N8  UNK     0      -6.145   6.651  -2.617  1.00  0.00    -0.108 NA
HETATM   19  C21 UNK     0      -5.247   6.850  -3.605  1.00  0.00     0.686 C 
HETATM   20  N9  UNK     0      -5.683   7.026  -4.959  1.00  0.00    -0.234 N 
HETATM   21  N10 UNK     0      -3.849   6.885  -3.290  1.00  0.00    -0.234 N 
HETATM   22  H27 UNK     0      -6.728   7.002  -5.192  1.00  0.00     0.174 HD
HETATM   23  H28 UNK     0      -4.966   7.183  -5.736  1.00  0.00     0.174 HD
HETATM   24  H29 UNK     0      -3.525   6.755  -2.278  1.00  0.00     0.174 HD
HETATM   25  H30 UNK     0      -3.129   7.042  -4.066  1.00  0.00     0.174 HD
ENDBRANCH  17  18
ENDBRANCH  16  17
ENDBRANCH  15  16
ENDBRANCH  14  15
BRANCH  14  26
HETATM   26  C16 UNK     0      -5.371   2.814  -2.126  1.00  0.00     0.159 C 
HETATM   27  O5  UNK     0      -5.560   3.207  -3.304  1.00  0.00    -0.649 OA
BRANCH  26  28
HETATM   28  O4  UNK     0      -6.282   1.911  -1.533  1.00  0.00    -0.775 OA
HETATM   29  H2  UNK     0      -5.818   0.979  -1.404  1.00  0.00     0.167 HD
ENDBRANCH  26  28
ENDBRANCH  14  26
ENDBRANCH  12  14
ENDBRANCH   1  12
TORSDOF 10
ENDMDL
MODEL 7
REMARK VINA RESULT:    -5.585     10.980     13.334
REMARK INTER + INTRA:         -10.383
REMARK INTER:                  -9.132
REMARK INTRA:                  -1.252
REMARK UNBOUND:                -1.696
REMARK  10 active torsions:
REMARK  status: ('A' for Active; 'I' for Inactive)
REMARK    1  A    between atoms: S1_1  and  C15_15 
REMARK    2  A    between atoms: S1_1  and  N7_7 
REMARK    3  A    between atoms: O4_4  and  C16_16 
REMARK    4  A    between atoms: O6_6  and  C22_22 
REMARK    5  A    between atoms: N7_7  and  C12_12 
REMARK    6  A    between atoms: N8_8  and  C14_14 
REMARK       I    between atoms: N9_9  and  C21_21 
REMARK       I    between atoms: N10_10  and  C21_21 
REMARK    7  A    between atoms: C11_11  and  C12_12 
REMARK    8  A    between atoms: C11_11  and  C13_13 
REMARK    9  A    between atoms: C12_12  and  C16_16 
REMARK   10  A    between atoms: C13_13  and  C14_14 
ROOT
HETATM    1  S1  UNK     0     -15.135  -1.889   1.574  1.00  0.00     0.242 S 
HETATM    2  O2  UNK     0     -15.236  -1.777   0.086  1.00  0.00    -0.206 OA
HETATM    3  O3  UNK     0     -15.950  -0.799   2.198  1.00  0.00    -0.206 OA
ENDROOT
BRANCH   1   4
HETATM    4  C15 UNK     0     -15.772  -3.500   2.103  1.00  0.00     0.074 A 
HETATM    5  C18 UNK     0     -16.230  -3.681   3.454  1.00  0.00     0.027 A 
HETATM    6  C20 UNK     0     -16.746  -4.958   3.870  1.00  0.00     0.038 A 
HETATM    7  C22 UNK     0     -16.802  -6.052   2.936  1.00  0.00     0.068 A 
HETATM    8  C19 UNK     0     -16.336  -5.867   1.585  1.00  0.00     0.038 A 
HETATM    9  C17 UNK     0     -15.821  -4.591   1.168  1.00  0.00     0.027 A 
BRANCH   7  10
HETATM   10  O6  UNK     0     -17.318  -7.301   3.358  1.00  0.00    -0.356 OA
HETATM   11  C23 UNK     0     -18.135  -8.142   2.460  1.00  0.00     0.210 C 
ENDBRANCH   7  10
ENDBRANCH   1   4
BRANCH   1  12
HETATM   12  N7  UNK     0     -13.514  -1.747   2.071  1.00  0.00    -0.201 NA
HETATM   13  H26 UNK     0     -13.157  -2.662   2.495  1.00  0.00     0.141 HD
BRANCH  12  14
HETATM   14  C12 UNK     0     -12.803  -1.430   0.761  1.00  0.00     0.169 C 
BRANCH  14  15
HETATM   15  C11 UNK     0     -12.045  -0.038   0.883  1.00  0.00     0.033 C 
BRANCH  15  16
HETATM   16  C13 UNK     0     -12.442   0.644   2.264  1.00  0.00     0.024 C 
BRANCH  16  17
HETATM   17  C14 UNK     0     -13.465   1.832   2.016  1.00  0.00     0.169 C 
BRANCH  17  18
HETATM   18  N8  UNK     0     -13.275   2.477   0.645  1.00  0.00    -0.108 NA
HETATM   19  C21 UNK     0     -14.189   2.239  -0.319  1.00  0.00     0.686 C 
HETATM   20  N9  UNK     0     -14.045   2.828  -1.618  1.00  0.00    -0.234 N 
HETATM   21  N10 UNK     0     -15.309   1.390  -0.034  1.00  0.00    -0.234 N 
HETATM   22  H27 UNK     0     -13.207   3.460  -1.829  1.00  0.00     0.174 HD
HETATM   23  H28 UNK     0     -14.774   2.634  -2.377  1.00  0.00     0.174 HD
HETATM   24  H29 UNK     0     -15.413   0.950   0.935  1.00  0.00     0.174 HD
HETATM   25  H30 UNK     0     -16.039   1.195  -0.792  1.00  0.00     0.174 HD
ENDBRANCH  17  18
ENDBRANCH  16  17
ENDBRANCH  15  16
ENDBRANCH  14  15
BRANCH  14  26
HETATM   26  C16 UNK     0     -11.761  -2.565   0.444  1.00  0.00     0.159 C 
HETATM   27  O5  UNK     0     -10.532  -2.363   0.607  1.00  0.00    -0.649 OA
BRANCH  26  28
HETATM   28  O4  UNK     0     -12.209  -3.820  -0.028  1.00  0.00    -0.775 OA
HETATM   29  H2  UNK     0     -11.709  -4.586   0.486  1.00  0.00     0.167 HD
ENDBRANCH  26  28
ENDBRANCH  14  26
ENDBRANCH  12  14
ENDBRANCH   1  12
TORSDOF 10
ENDMDL
MODEL 8
REMARK VINA RESULT:    -5.567      3.039      4.021
REMARK INTER + INTRA:         -10.355
REMARK INTER:                  -8.688
REMARK INTRA:                  -1.667
REMARK UNBOUND:                -1.696
REMARK  10 active torsions:
REMARK  status: ('A' for Active; 'I' for Inactive)
REMARK    1  A    between atoms: S1_1  and  C15_15 
REMARK    2  A    between atoms: S1_1  and  N7_7 
REMARK    3  A    between atoms: O4_4  and  C16_16 
REMARK    4  A    between atoms: O6_6  and  C22_22 
REMARK    5  A    between atoms: N7_7  and  C12_12 
REMARK    6  A    between atoms: N8_8  and  C14_14 
REMARK       I    between atoms: N9_9  and  C21_21 
REMARK       I    between atoms: N10_10  and  C21_21 
REMARK    7  A    between atoms: C11_11  and  C12_12 
REMARK    8  A    between atoms: C11_11  and  C13_13 
REMARK    9  A    between atoms: C12_12  and  C16_16 
REMARK   10  A    between atoms: C13_13  and  C14_14 
ROOT
HETATM    1  S1  UNK     0      -2.239   2.549  -3.277  1.00  0.00     0.242 S 
HETATM    2  O2  UNK     0      -1.438   1.801  -4.295  1.00  0.00    -0.206 OA
HETATM    3  O3  UNK     0      -2.028   1.919  -1.936  1.00  0.00    -0.206 OA
ENDROOT
BRANCH   1   4
HETATM    4  C15 UNK     0      -1.692   4.275  -3.228  1.00  0.00     0.074 A 
HETATM    5  C18 UNK     0      -1.861   5.113  -4.384  1.00  0.00     0.027 A 
HETATM    6  C20 UNK     0      -1.437   6.487  -4.340  1.00  0.00     0.038 A 
HETATM    7  C22 UNK     0      -0.844   7.021  -3.142  1.00  0.00     0.068 A 
HETATM    8  C19 UNK     0      -0.671   6.175  -1.989  1.00  0.00     0.038 A 
HETATM    9  C17 UNK     0      -1.096   4.802  -2.030  1.00  0.00     0.027 A 
BRANCH   7  10
HETATM   10  O6  UNK     0      -0.436   8.377  -3.112  1.00  0.00    -0.356 OA
HETATM   11  C23 UNK     0      -0.436   9.155  -1.857  1.00  0.00     0.210 C 
ENDBRANCH   7  10
ENDBRANCH   1   4
BRANCH   1  12
HETATM   12  N7  UNK     0      -3.893   2.506  -3.676  1.00  0.00    -0.201 NA
HETATM   13  H26 UNK     0      -4.264   1.503  -3.684  1.00  0.00     0.141 HD
BRANCH  12  14
HETATM   14  C12 UNK     0      -4.516   3.317  -2.546  1.00  0.00     0.169 C 
BRANCH  14  15
HETATM   15  C11 UNK     0      -5.568   4.350  -3.142  1.00  0.00     0.033 C 
BRANCH  15  16
HETATM   16  C13 UNK     0      -5.184   5.815  -2.654  1.00  0.00     0.024 C 
BRANCH  16  17
HETATM   17  C14 UNK     0      -4.539   5.758  -1.204  1.00  0.00     0.169 C 
BRANCH  17  18
HETATM   18  N8  UNK     0      -5.513   6.227  -0.124  1.00  0.00    -0.108 NA
HETATM   19  C21 UNK     0      -5.534   5.578   1.059  1.00  0.00     0.686 C 
HETATM   20  N9  UNK     0      -6.433   5.989   2.097  1.00  0.00    -0.234 N 
HETATM   21  N10 UNK     0      -4.651   4.468   1.271  1.00  0.00    -0.234 N 
HETATM   22  H27 UNK     0      -7.093   6.816   1.936  1.00  0.00     0.174 HD
HETATM   23  H28 UNK     0      -6.445   5.470   3.032  1.00  0.00     0.174 HD
HETATM   24  H29 UNK     0      -3.982   4.161   0.494  1.00  0.00     0.174 HD
HETATM   25  H30 UNK     0      -4.661   3.947   2.205  1.00  0.00     0.174 HD
ENDBRANCH  17  18
ENDBRANCH  16  17
ENDBRANCH  15  16
ENDBRANCH  14  15
BRANCH  14  26
HETATM   26  C16 UNK     0      -5.246   2.347  -1.546  1.00  0.00     0.159 C 
HETATM   27  O5  UNK     0      -6.445   2.023  -1.736  1.00  0.00    -0.649 OA
BRANCH  26  28
HETATM   28  O4  UNK     0      -4.550   1.835  -0.428  1.00  0.00    -0.775 OA
HETATM   29  H2  UNK     0      -4.038   0.962  -0.704  1.00  0.00     0.167 HD
ENDBRANCH  26  28
ENDBRANCH  14  26
ENDBRANCH  12  14
ENDBRANCH   1  12
TORSDOF 10
ENDMDL
MODEL 9
REMARK VINA RESULT:    -5.450      3.861      6.712
REMARK INTER + INTRA:         -10.173
REMARK INTER:                  -8.792
REMARK INTRA:                  -1.380
REMARK UNBOUND:                -1.696
REMARK  10 active torsions:
REMARK  status: ('A' for Active; 'I' for Inactive)
REMARK    1  A    between atoms: S1_1  and  C15_15 
REMARK    2  A    between atoms: S1_1  and  N7_7 
REMARK    3  A    between atoms: O4_4  and  C16_16 
REMARK    4  A    between atoms: O6_6  and  C22_22 
REMARK    5  A    between atoms: N7_7  and  C12_12 
REMARK    6  A    between atoms: N8_8  and  C14_14 
REMARK       I    between atoms: N9_9  and  C21_21 
REMARK       I    between atoms: N10_10  and  C21_21 
REMARK    7  A    between atoms: C11_11  and  C12_12 
REMARK    8  A    between atoms: C11_11  and  C13_13 
REMARK    9  A    between atoms: C12_12  and  C16_16 
REMARK   10  A    between atoms: C13_13  and  C14_14 
ROOT
HETATM    1  S1  UNK     0      -3.100   5.572  -2.259  1.00  0.00     0.242 S 
HETATM    2  O2  UNK     0      -4.219   6.131  -1.438  1.00  0.00    -0.206 OA
HETATM    3  O3  UNK     0      -2.689   6.592  -3.275  1.00  0.00    -0.206 OA
ENDROOT
BRANCH   1   4
HETATM    4  C15 UNK     0      -1.694   5.191  -1.182  1.00  0.00     0.074 A 
HETATM    5  C18 UNK     0      -1.448   5.994  -0.014  1.00  0.00     0.027 A 
HETATM    6  C20 UNK     0      -0.338   5.683   0.846  1.00  0.00     0.038 A 
HETATM    7  C22 UNK     0       0.525   4.572   0.539  1.00  0.00     0.068 A 
HETATM    8  C19 UNK     0       0.277   3.775  -0.635  1.00  0.00     0.038 A 
HETATM    9  C17 UNK     0      -0.833   4.083  -1.496  1.00  0.00     0.027 A 
BRANCH   7  10
HETATM   10  O6  UNK     0       1.610   4.275   1.399  1.00  0.00    -0.356 OA
HETATM   11  C23 UNK     0       1.431   4.178   2.862  1.00  0.00     0.210 C 
ENDBRANCH   7  10
ENDBRANCH   1   4
BRANCH   1  12
HETATM   12  N7  UNK     0      -3.594   4.147  -3.045  1.00  0.00    -0.201 NA
HETATM   13  H26 UNK     0      -2.960   3.323  -2.790  1.00  0.00     0.141 HD
BRANCH  12  14
HETATM   14  C12 UNK     0      -5.003   3.951  -2.497  1.00  0.00     0.169 C 
BRANCH  14  15
HETATM   15  C11 UNK     0      -6.041   3.866  -3.700  1.00  0.00     0.033 C 
BRANCH  15  16
HETATM   16  C13 UNK     0      -6.111   5.284  -4.417  1.00  0.00     0.024 C 
BRANCH  16  17
HETATM   17  C14 UNK     0      -5.665   5.154  -5.936  1.00  0.00     0.169 C 
BRANCH  17  18
HETATM   18  N8  UNK     0      -4.171   4.871  -6.073  1.00  0.00    -0.108 NA
HETATM   19  C21 UNK     0      -3.323   5.911  -6.222  1.00  0.00     0.686 C 
HETATM   20  N9  UNK     0      -1.914   5.686  -6.352  1.00  0.00    -0.234 N 
HETATM   21  N10 UNK     0      -3.844   7.247  -6.252  1.00  0.00    -0.234 N 
HETATM   22  H27 UNK     0      -1.527   4.688  -6.332  1.00  0.00     0.174 HD
HETATM   23  H28 UNK     0      -1.248   6.515  -6.471  1.00  0.00     0.174 HD
HETATM   24  H29 UNK     0      -4.897   7.412  -6.157  1.00  0.00     0.174 HD
HETATM   25  H30 UNK     0      -3.180   8.077  -6.371  1.00  0.00     0.174 HD
ENDBRANCH  17  18
ENDBRANCH  16  17
ENDBRANCH  15  16
ENDBRANCH  14  15
BRANCH  14  26
HETATM   26  C16 UNK     0      -5.060   2.617  -1.665  1.00  0.00     0.159 C 
HETATM   27  O5  UNK     0      -4.024   2.167  -1.115  1.00  0.00    -0.649 OA
BRANCH  26  28
HETATM   28  O4  UNK     0      -6.283   1.921  -1.534  1.00  0.00    -0.775 OA
HETATM   29  H2  UNK     0      -7.081   2.600  -1.604  1.00  0.00     0.167 HD
ENDBRANCH  26  28
ENDBRANCH  14  26
ENDBRANCH  12  14
ENDBRANCH   1  12
TORSDOF 10
ENDMDL
