MODEL 1
REMARK VINA RESULT:    -5.267      0.000      0.000
REMARK INTER + INTRA:          -5.926
REMARK INTER:                  -5.883
REMARK INTRA:                  -0.043
REMARK UNBOUND:                -0.043
REMARK  3 active torsions:
REMARK  status: ('A' for Active; 'I' for Inactive)
REMARK    1  A    between atoms: C3_3  and  S8_8 
REMARK    2  A    between atoms: C6_6  and  N7_7 
REMARK    3  A    between atoms: S8_8  and  N9_9 
ROOT
HETATM    1  C1  UNK     0      -6.720  -9.788  -1.958  1.00  0.00     0.030 A 
HETATM    2  C2  UNK     0      -5.526 -10.514  -2.428  1.00  0.00     0.027 A 
HETATM    3  C3  UNK     0      -4.185 -10.088  -1.988  1.00  0.00     0.074 A 
HETATM    4  C4  UNK     0      -4.037  -8.938  -1.078  1.00  0.00     0.027 A 
HETATM    5  C5  UNK     0      -5.231  -8.213  -0.608  1.00  0.00     0.030 A 
HETATM    6  C6  UNK     0      -6.573  -8.637  -1.048  1.00  0.00     0.025 A 
ENDROOT
BRANCH   6   7
HETATM    7  N7  UNK     0      -7.787  -7.898  -0.570  1.00  0.00    -0.399 N 
HETATM    8  H17 UNK     0      -8.044  -7.905   0.468  1.00  0.00     0.156 HD
HETATM    9  H16 UNK     0      -8.397  -7.363  -1.268  1.00  0.00     0.156 HD
ENDBRANCH   6   7
BRANCH   3  10
HETATM   10  S8  UNK     0      -2.676 -11.003  -2.581  1.00  0.00     0.239 S 
HETATM   11  O11 UNK     0      -3.099 -12.330  -3.221  1.00  0.00    -0.206 OA
HETATM   12  O10 UNK     0      -1.761 -11.283  -1.384  1.00  0.00    -0.206 OA
BRANCH  10  13
HETATM   13  N9  UNK     0      -1.808 -10.049  -3.753  1.00  0.00    -0.225 NA
HETATM   14  H19 UNK     0      -1.384  -9.192  -3.273  1.00  0.00     0.136 HD
HETATM   15  H18 UNK     0      -2.481  -9.729  -4.522  1.00  0.00     0.136 HD
ENDBRANCH  10  13
ENDBRANCH   3  10
TORSDOF 3
ENDMDL
