MODEL 1
REMARK VINA RESULT:    -5.267      0.000      0.000
REMARK INTER + INTRA:          -5.926
REMARK INTER:                  -5.883
REMARK INTRA:                  -0.043
REMARK UNBOUND:                -0.043
REMARK  3 active torsions:
REMARK  status: ('A' for Active; 'I' for Inactive)
REMARK    1  A    between atoms: C3_3  and  S8_8 
REMARK    2  A    between atoms: C6_6  and  N7_7 
REMARK    3  A    between atoms: S8_8  and  N9_9 
ROOT
HETATM    1  C1  UNK     0      -6.720  -9.788  -1.958  1.00  0.00     0.030 A 
HETATM    2  C2  UNK     0      -5.526 -10.514  -2.428  1.00  0.00     0.027 A 
HETATM    3  C3  UNK     0      -4.185 -10.088  -1.988  1.00  0.00     0.074 A 
HETATM    4  C4  UNK     0      -4.037  -8.938  -1.078  1.00  0.00     0.027 A 
HETATM    5  C5  UNK     0      -5.231  -8.213  -0.608  1.00  0.00     0.030 A 
HETATM    6  C6  UNK     0      -6.573  -8.637  -1.048  1.00  0.00     0.025 A 
ENDROOT
BRANCH   6   7
HETATM    7  N7  UNK     0      -7.787  -7.898  -0.570  1.00  0.00    -0.399 N 
HETATM    8  H17 UNK     0      -8.044  -7.905   0.468  1.00  0.00     0.156 HD
HETATM    9  H16 UNK     0      -8.397  -7.363  -1.268  1.00  0.00     0.156 HD
ENDBRANCH   6   7
BRANCH   3  10
HETATM   10  S8  UNK     0      -2.676 -11.003  -2.581  1.00  0.00     0.239 S 
HETATM   11  O11 UNK     0      -3.099 -12.330  -3.221  1.00  0.00    -0.206 OA
HETATM   12  O10 UNK     0      -1.761 -11.283  -1.384  1.00  0.00    -0.206 OA
BRANCH  10  13
HETATM   13  N9  UNK     0      -1.808 -10.049  -3.753  1.00  0.00    -0.225 NA
HETATM   14  H19 UNK     0      -1.384  -9.192  -3.273  1.00  0.00     0.136 HD
HETATM   15  H18 UNK     0      -2.481  -9.729  -4.522  1.00  0.00     0.136 HD
ENDBRANCH  10  13
ENDBRANCH   3  10
TORSDOF 3
ENDMDL
MODEL 2
REMARK VINA RESULT:    -5.230      0.134      1.542
REMARK INTER + INTRA:          -5.884
REMARK INTER:                  -5.841
REMARK INTRA:                  -0.043
REMARK UNBOUND:                -0.043
REMARK  3 active torsions:
REMARK  status: ('A' for Active; 'I' for Inactive)
REMARK    1  A    between atoms: C3_3  and  S8_8 
REMARK    2  A    between atoms: C6_6  and  N7_7 
REMARK    3  A    between atoms: S8_8  and  N9_9 
ROOT
HETATM    1  C1  UNK     0      -5.131  -8.285  -0.443  1.00  0.00     0.030 A 
HETATM    2  C2  UNK     0      -3.958  -9.033  -0.930  1.00  0.00     0.027 A 
HETATM    3  C3  UNK     0      -4.129 -10.100  -1.932  1.00  0.00     0.074 A 
HETATM    4  C4  UNK     0      -5.473 -10.419  -2.448  1.00  0.00     0.027 A 
HETATM    5  C5  UNK     0      -6.646  -9.671  -1.961  1.00  0.00     0.030 A 
HETATM    6  C6  UNK     0      -6.476  -8.603  -0.959  1.00  0.00     0.025 A 
ENDROOT
BRANCH   6   7
HETATM    7  N7  UNK     0      -7.670  -7.843  -0.463  1.00  0.00    -0.399 N 
HETATM    8  H17 UNK     0      -8.450  -7.570  -1.143  1.00  0.00     0.156 HD
HETATM    9  H16 UNK     0      -7.742  -7.574   0.570  1.00  0.00     0.156 HD
ENDBRANCH   6   7
BRANCH   3  10
HETATM   10  S8  UNK     0      -2.649 -11.046  -2.546  1.00  0.00     0.239 S 
HETATM   11  O11 UNK     0      -3.113 -12.332  -3.238  1.00  0.00    -0.206 OA
HETATM   12  O10 UNK     0      -1.756 -11.402  -1.352  1.00  0.00    -0.206 OA
BRANCH  10  13
HETATM   13  N9  UNK     0      -1.736 -10.080  -3.675  1.00  0.00    -0.225 NA
HETATM   14  H19 UNK     0      -2.378  -9.350  -4.121  1.00  0.00     0.136 HD
HETATM   15  H18 UNK     0      -1.330 -10.711  -4.438  1.00  0.00     0.136 HD
ENDBRANCH  10  13
ENDBRANCH   3  10
TORSDOF 3
ENDMDL
MODEL 3
REMARK VINA RESULT:    -5.048     18.423     18.969
REMARK INTER + INTRA:          -5.681
REMARK INTER:                  -5.638
REMARK INTRA:                  -0.043
REMARK UNBOUND:                -0.043
REMARK  3 active torsions:
REMARK  status: ('A' for Active; 'I' for Inactive)
REMARK    1  A    between atoms: C3_3  and  S8_8 
REMARK    2  A    between atoms: C6_6  and  N7_7 
REMARK    3  A    between atoms: S8_8  and  N9_9 
ROOT
HETATM    1  C1  UNK     0      -2.147   5.625   7.375  1.00  0.00     0.030 A 
HETATM    2  C2  UNK     0      -0.885   5.604   8.136  1.00  0.00     0.027 A 
HETATM    3  C3  UNK     0      -0.805   4.869   9.411  1.00  0.00     0.074 A 
HETATM    4  C4  UNK     0      -1.987   4.154   9.925  1.00  0.00     0.027 A 
HETATM    5  C5  UNK     0      -3.249   4.174   9.164  1.00  0.00     0.030 A 
HETATM    6  C6  UNK     0      -3.330   4.909   7.888  1.00  0.00     0.025 A 
ENDROOT
BRANCH   6   7
HETATM    7  N7  UNK     0      -4.615   4.930   7.115  1.00  0.00    -0.399 N 
HETATM    8  H17 UNK     0      -4.750   5.634   6.321  1.00  0.00     0.156 HD
HETATM    9  H16 UNK     0      -5.397   4.241   7.358  1.00  0.00     0.156 HD
ENDBRANCH   6   7
BRANCH   3  10
HETATM   10  S8  UNK     0       0.788   4.844  10.373  1.00  0.00     0.239 S 
HETATM   11  O11 UNK     0       0.583   5.539  11.724  1.00  0.00    -0.206 OA
HETATM   12  O10 UNK     0       1.863   5.589   9.574  1.00  0.00    -0.206 OA
BRANCH  10  13
HETATM   13  N9  UNK     0       1.310   3.203  10.642  1.00  0.00    -0.225 NA
HETATM   14  H19 UNK     0       0.490   2.623  11.011  1.00  0.00     0.136 HD
HETATM   15  H18 UNK     0       2.104   3.193  11.359  1.00  0.00     0.136 HD
ENDBRANCH  10  13
ENDBRANCH   3  10
TORSDOF 3
ENDMDL
MODEL 4
REMARK VINA RESULT:    -4.976     18.413     18.936
REMARK INTER + INTRA:          -5.601
REMARK INTER:                  -5.558
REMARK INTRA:                  -0.043
REMARK UNBOUND:                -0.043
REMARK  3 active torsions:
REMARK  status: ('A' for Active; 'I' for Inactive)
REMARK    1  A    between atoms: C3_3  and  S8_8 
REMARK    2  A    between atoms: C6_6  and  N7_7 
REMARK    3  A    between atoms: S8_8  and  N9_9 
ROOT
HETATM    1  C1  UNK     0      -3.103   4.275   8.715  1.00  0.00     0.030 A 
HETATM    2  C2  UNK     0      -1.921   4.190   9.591  1.00  0.00     0.027 A 
HETATM    3  C3  UNK     0      -0.694   4.931   9.248  1.00  0.00     0.074 A 
HETATM    4  C4  UNK     0      -0.649   5.760   8.029  1.00  0.00     0.027 A 
HETATM    5  C5  UNK     0      -1.832   5.845   7.153  1.00  0.00     0.030 A 
HETATM    6  C6  UNK     0      -3.059   5.103   7.495  1.00  0.00     0.025 A 
ENDROOT
BRANCH   6   7
HETATM    7  N7  UNK     0      -4.261   5.190   6.602  1.00  0.00    -0.399 N 
HETATM    8  H17 UNK     0      -5.113   4.571   6.792  1.00  0.00     0.156 HD
HETATM    9  H16 UNK     0      -4.266   5.870   5.776  1.00  0.00     0.156 HD
ENDBRANCH   6   7
BRANCH   3  10
HETATM   10  S8  UNK     0       0.799   4.823  10.354  1.00  0.00     0.239 S 
HETATM   11  O11 UNK     0       0.494   5.494  11.697  1.00  0.00    -0.206 OA
HETATM   12  O10 UNK     0       1.972   5.544   9.678  1.00  0.00    -0.206 OA
BRANCH  10  13
HETATM   13  N9  UNK     0       1.234   3.157  10.626  1.00  0.00    -0.225 NA
HETATM   14  H19 UNK     0       0.847   2.837  11.571  1.00  0.00     0.136 HD
HETATM   15  H18 UNK     0       2.300   3.062  10.628  1.00  0.00     0.136 HD
ENDBRANCH  10  13
ENDBRANCH   3  10
TORSDOF 3
ENDMDL
MODEL 5
REMARK VINA RESULT:    -4.965      3.712      4.710
REMARK INTER + INTRA:          -5.588
REMARK INTER:                  -5.545
REMARK INTRA:                  -0.043
REMARK UNBOUND:                -0.043
REMARK  3 active torsions:
REMARK  status: ('A' for Active; 'I' for Inactive)
REMARK    1  A    between atoms: C3_3  and  S8_8 
REMARK    2  A    between atoms: C6_6  and  N7_7 
REMARK    3  A    between atoms: S8_8  and  N9_9 
ROOT
HETATM    1  C1  UNK     0      -3.576 -11.306   0.383  1.00  0.00     0.030 A 
HETATM    2  C2  UNK     0      -4.198 -10.035  -0.030  1.00  0.00     0.027 A 
HETATM    3  C3  UNK     0      -5.043  -9.985  -1.237  1.00  0.00     0.074 A 
HETATM    4  C4  UNK     0      -5.267 -11.207  -2.030  1.00  0.00     0.027 A 
HETATM    5  C5  UNK     0      -4.646 -12.478  -1.617  1.00  0.00     0.030 A 
HETATM    6  C6  UNK     0      -3.801 -12.529  -0.410  1.00  0.00     0.025 A 
ENDROOT
BRANCH   6   7
HETATM    7  N7  UNK     0      -3.168 -13.823   0.008  1.00  0.00    -0.399 N 
HETATM    8  H17 UNK     0      -2.195 -13.823   0.454  1.00  0.00     0.156 HD
HETATM    9  H16 UNK     0      -3.689 -14.745  -0.138  1.00  0.00     0.156 HD
ENDBRANCH   6   7
BRANCH   3  10
HETATM   10  S8  UNK     0      -5.827  -8.380  -1.759  1.00  0.00     0.239 S 
HETATM   11  O11 UNK     0      -5.289  -7.239  -0.889  1.00  0.00    -0.206 OA
HETATM   12  O10 UNK     0      -7.346  -8.487  -1.581  1.00  0.00    -0.206 OA
BRANCH  10  13
HETATM   13  N9  UNK     0      -5.470  -8.047  -3.433  1.00  0.00    -0.225 NA
HETATM   14  H19 UNK     0      -6.377  -7.812  -3.952  1.00  0.00     0.136 HD
HETATM   15  H18 UNK     0      -5.017  -8.907  -3.880  1.00  0.00     0.136 HD
ENDBRANCH  10  13
ENDBRANCH   3  10
TORSDOF 3
ENDMDL
MODEL 6
REMARK VINA RESULT:    -4.865      3.300      4.581
REMARK INTER + INTRA:          -5.477
REMARK INTER:                  -5.434
REMARK INTRA:                  -0.043
REMARK UNBOUND:                -0.043
REMARK  3 active torsions:
REMARK  status: ('A' for Active; 'I' for Inactive)
REMARK    1  A    between atoms: C3_3  and  S8_8 
REMARK    2  A    between atoms: C6_6  and  N7_7 
REMARK    3  A    between atoms: S8_8  and  N9_9 
ROOT
HETATM    1  C1  UNK     0      -4.699 -10.553  -3.347  1.00  0.00     0.030 A 
HETATM    2  C2  UNK     0      -4.987  -9.290  -2.643  1.00  0.00     0.027 A 
HETATM    3  C3  UNK     0      -4.894  -9.228  -1.173  1.00  0.00     0.074 A 
HETATM    4  C4  UNK     0      -4.513 -10.429  -0.407  1.00  0.00     0.027 A 
HETATM    5  C5  UNK     0      -4.226 -11.692  -1.111  1.00  0.00     0.030 A 
HETATM    6  C6  UNK     0      -4.318 -11.754  -2.581  1.00  0.00     0.025 A 
ENDROOT
BRANCH   6   7
HETATM    7  N7  UNK     0      -4.027 -13.040  -3.296  1.00  0.00    -0.399 N 
HETATM    8  H17 UNK     0      -3.463 -13.807  -2.809  1.00  0.00     0.156 HD
HETATM    9  H16 UNK     0      -4.383 -13.190  -4.294  1.00  0.00     0.156 HD
ENDBRANCH   6   7
BRANCH   3  10
HETATM   10  S8  UNK     0      -5.258  -7.635  -0.283  1.00  0.00     0.239 S 
HETATM   11  O11 UNK     0      -4.646  -6.463  -1.058  1.00  0.00    -0.206 OA
HETATM   12  O10 UNK     0      -4.642  -7.696   1.120  1.00  0.00    -0.206 OA
BRANCH  10  13
HETATM   13  N9  UNK     0      -6.979  -7.397  -0.141  1.00  0.00    -0.225 NA
HETATM   14  H19 UNK     0      -7.492  -8.238  -0.559  1.00  0.00     0.136 HD
HETATM   15  H18 UNK     0      -7.261  -6.509  -0.669  1.00  0.00     0.136 HD
ENDBRANCH  10  13
ENDBRANCH   3  10
TORSDOF 3
ENDMDL
MODEL 7
REMARK VINA RESULT:    -4.770      3.394      4.402
REMARK INTER + INTRA:          -5.371
REMARK INTER:                  -5.328
REMARK INTRA:                  -0.043
REMARK UNBOUND:                -0.043
REMARK  3 active torsions:
REMARK  status: ('A' for Active; 'I' for Inactive)
REMARK    1  A    between atoms: C3_3  and  S8_8 
REMARK    2  A    between atoms: C6_6  and  N7_7 
REMARK    3  A    between atoms: S8_8  and  N9_9 
ROOT
HETATM    1  C1  UNK     0      -4.687 -12.380  -1.597  1.00  0.00     0.030 A 
HETATM    2  C2  UNK     0      -5.262 -11.110  -2.076  1.00  0.00     0.027 A 
HETATM    3  C3  UNK     0      -5.049  -9.870  -1.308  1.00  0.00     0.074 A 
HETATM    4  C4  UNK     0      -4.261  -9.899  -0.063  1.00  0.00     0.027 A 
HETATM    5  C5  UNK     0      -3.686 -11.169   0.416  1.00  0.00     0.030 A 
HETATM    6  C6  UNK     0      -3.898 -12.410  -0.351  1.00  0.00     0.025 A 
ENDROOT
BRANCH   6   7
HETATM    7  N7  UNK     0      -3.314 -13.702   0.137  1.00  0.00    -0.399 N 
HETATM    8  H17 UNK     0      -3.822 -14.269   0.888  1.00  0.00     0.156 HD
HETATM    9  H16 UNK     0      -2.388 -14.057  -0.265  1.00  0.00     0.156 HD
ENDBRANCH   6   7
BRANCH   3  10
HETATM   10  S8  UNK     0      -5.776  -8.266  -1.911  1.00  0.00     0.239 S 
HETATM   11  O11 UNK     0      -5.430  -8.070  -3.391  1.00  0.00    -0.206 OA
HETATM   12  O10 UNK     0      -5.184  -7.113  -1.092  1.00  0.00    -0.206 OA
BRANCH  10  13
HETATM   13  N9  UNK     0      -7.508  -8.273  -1.719  1.00  0.00    -0.225 NA
HETATM   14  H19 UNK     0      -7.963  -7.790  -2.559  1.00  0.00     0.136 HD
HETATM   15  H18 UNK     0      -7.771  -7.751  -0.822  1.00  0.00     0.136 HD
ENDBRANCH  10  13
ENDBRANCH   3  10
TORSDOF 3
ENDMDL
MODEL 8
REMARK VINA RESULT:    -4.739     20.598     21.820
REMARK INTER + INTRA:          -5.336
REMARK INTER:                  -5.293
REMARK INTRA:                  -0.043
REMARK UNBOUND:                -0.043
REMARK  3 active torsions:
REMARK  status: ('A' for Active; 'I' for Inactive)
REMARK    1  A    between atoms: C3_3  and  S8_8 
REMARK    2  A    between atoms: C6_6  and  N7_7 
REMARK    3  A    between atoms: S8_8  and  N9_9 
ROOT
HETATM    1  C1  UNK     0       3.704   6.759  11.747  1.00  0.00     0.030 A 
HETATM    2  C2  UNK     0       2.829   5.648  11.330  1.00  0.00     0.027 A 
HETATM    3  C3  UNK     0       1.469   5.927  10.836  1.00  0.00     0.074 A 
HETATM    4  C4  UNK     0       0.983   7.317  10.757  1.00  0.00     0.027 A 
HETATM    5  C5  UNK     0       1.858   8.427  11.174  1.00  0.00     0.030 A 
HETATM    6  C6  UNK     0       3.219   8.149  11.668  1.00  0.00     0.025 A 
ENDROOT
BRANCH   6   7
HETATM    7  N7  UNK     0       4.108   9.280  12.093  1.00  0.00    -0.399 N 
HETATM    8  H17 UNK     0       5.087   9.077  12.474  1.00  0.00     0.156 HD
HETATM    9  H16 UNK     0       3.763  10.290  12.015  1.00  0.00     0.156 HD
ENDBRANCH   6   7
BRANCH   3  10
HETATM   10  S8  UNK     0       0.363   4.525  10.311  1.00  0.00     0.239 S 
HETATM   11  O11 UNK     0       0.837   3.224  10.967  1.00  0.00    -0.206 OA
HETATM   12  O10 UNK     0       0.431   4.382   8.786  1.00  0.00    -0.206 OA
BRANCH  10  13
HETATM   13  N9  UNK     0      -1.285   4.842  10.781  1.00  0.00    -0.225 NA
HETATM   14  H19 UNK     0      -1.917   4.055  10.425  1.00  0.00     0.136 HD
HETATM   15  H18 UNK     0      -1.605   5.773  10.360  1.00  0.00     0.136 HD
ENDBRANCH  10  13
ENDBRANCH   3  10
TORSDOF 3
ENDMDL
MODEL 9
REMARK VINA RESULT:    -4.701      1.676      1.854
REMARK INTER + INTRA:          -5.294
REMARK INTER:                  -5.251
REMARK INTRA:                  -0.043
REMARK UNBOUND:                -0.043
REMARK  3 active torsions:
REMARK  status: ('A' for Active; 'I' for Inactive)
REMARK    1  A    between atoms: C3_3  and  S8_8 
REMARK    2  A    between atoms: C6_6  and  N7_7 
REMARK    3  A    between atoms: S8_8  and  N9_9 
ROOT
HETATM    1  C1  UNK     0      -6.480  -9.850  -1.857  1.00  0.00     0.030 A 
HETATM    2  C2  UNK     0      -5.235 -10.639  -1.887  1.00  0.00     0.027 A 
HETATM    3  C3  UNK     0      -4.134 -10.313  -0.962  1.00  0.00     0.074 A 
HETATM    4  C4  UNK     0      -4.278  -9.199  -0.007  1.00  0.00     0.027 A 
HETATM    5  C5  UNK     0      -5.523  -8.410   0.022  1.00  0.00     0.030 A 
HETATM    6  C6  UNK     0      -6.624  -8.735  -0.902  1.00  0.00     0.025 A 
ENDROOT
BRANCH   6   7
HETATM    7  N7  UNK     0      -7.890  -7.931  -0.873  1.00  0.00    -0.399 N 
HETATM    8  H17 UNK     0      -8.009  -7.097  -1.532  1.00  0.00     0.156 HD
HETATM    9  H16 UNK     0      -8.674  -8.192  -0.192  1.00  0.00     0.156 HD
ENDBRANCH   6   7
BRANCH   3  10
HETATM   10  S8  UNK     0      -2.562 -11.308  -0.999  1.00  0.00     0.239 S 
HETATM   11  O11 UNK     0      -1.525 -10.597  -1.875  1.00  0.00    -0.206 OA
HETATM   12  O10 UNK     0      -2.863 -12.692  -1.586  1.00  0.00    -0.206 OA
BRANCH  10  13
HETATM   13  N9  UNK     0      -1.924 -11.497   0.612  1.00  0.00    -0.225 NA
HETATM   14  H19 UNK     0      -2.229 -10.669   1.217  1.00  0.00     0.136 HD
HETATM   15  H18 UNK     0      -0.855 -11.532   0.571  1.00  0.00     0.136 HD
ENDBRANCH  10  13
ENDBRANCH   3  10
TORSDOF 3
ENDMDL
