MODEL 7
REMARK VINA RESULT:    -5.472      2.614      4.144
REMARK INTER + INTRA:         -10.883
REMARK INTER:                  -9.270
REMARK INTRA:                  -1.613
REMARK UNBOUND:                -1.093
REMARK  14 active torsions:
REMARK  status: ('A' for Active; 'I' for Inactive)
REMARK    1  A    between atoms: O1_1  and  C16_16 
REMARK    2  A    between atoms: O1_1  and  C14_14 
REMARK    3  A    between atoms: N2_2  and  C22_22 
REMARK    4  A    between atoms: C4_4  and  C5_5 
REMARK    5  A    between atoms: C4_4  and  C6_6 
REMARK    6  A    between atoms: C5_5  and  C7_7 
REMARK    7  A    between atoms: C6_6  and  C8_8 
REMARK    8  A    between atoms: C7_7  and  C9_9 
REMARK    9  A    between atoms: C8_8  and  C10_10 
REMARK   10  A    between atoms: C9_9  and  C11_11 
REMARK   11  A    between atoms: C10_10  and  C12_12 
REMARK   12  A    between atoms: C11_11  and  C13_13 
REMARK   13  A    between atoms: C12_12  and  C14_14 
REMARK   14  A    between atoms: C21_21  and  C22_22 
ROOT
HETATM    1  O1  UNK     0      -4.265   4.961   4.753  1.00  0.00    -0.351 OA
ENDROOT
BRANCH   1   2
HETATM    2  C16 UNK     0      -3.888   4.734   6.065  1.00  0.00     0.068 A 
HETATM    3  C18 UNK     0      -4.531   3.744   6.832  1.00  0.00     0.037 A 
HETATM    4  C20 UNK     0      -4.148   3.511   8.165  1.00  0.00     0.018 A 
HETATM    5  C21 UNK     0      -3.117   4.274   8.737  1.00  0.00     0.009 A 
HETATM    6  C19 UNK     0      -2.472   5.262   7.974  1.00  0.00     0.018 A 
HETATM    7  C17 UNK     0      -2.855   5.496   6.640  1.00  0.00     0.037 A 
BRANCH   5   8
HETATM    8  C22 UNK     0      -2.705   4.031  10.147  1.00  0.00     0.123 C 
HETATM    9  N3  UNK     0      -3.290   3.083  10.852  1.00  0.00    -0.384 N 
HETATM   10  H25 UNK     0      -2.994   2.909  11.865  1.00  0.00     0.157 HD
HETATM   11  H33 UNK     0      -4.060   2.486  10.410  1.00  0.00     0.157 HD
BRANCH   8  12
HETATM   12  N2  UNK     0      -1.699   4.811  10.726  1.00  0.00    -0.284 NA
HETATM   13  H23 UNK     0      -0.671   4.551  10.582  1.00  0.00     0.188 HD
ENDBRANCH   8  12
ENDBRANCH   5   8
ENDBRANCH   1   2
BRANCH   1  14
HETATM   14  C14 UNK     0      -5.624   5.327   4.433  1.00  0.00     0.175 C 
BRANCH  14  15
HETATM   15  C12 UNK     0      -5.729   6.819   4.024  1.00  0.00     0.027 C 
BRANCH  15  16
HETATM   16  C10 UNK     0      -5.682   7.670   5.319  1.00  0.00     0.002 C 
BRANCH  16  17
HETATM   17  C8  UNK     0      -4.880   8.976   5.094  1.00  0.00     0.000 C 
BRANCH  17  18
HETATM   18  C6  UNK     0      -3.655   8.641   4.207  1.00  0.00     0.000 C 
BRANCH  18  19
HETATM   19  C4  UNK     0      -2.384   8.549   5.090  1.00  0.00     0.000 C 
BRANCH  19  20
HETATM   20  C5  UNK     0      -1.141   8.401   4.173  1.00  0.00     0.000 C 
BRANCH  20  21
HETATM   21  C7  UNK     0      -1.466   7.432   3.009  1.00  0.00     0.000 C 
BRANCH  21  22
HETATM   22  C9  UNK     0      -1.010   6.002   3.390  1.00  0.00     0.000 C 
BRANCH  22  23
HETATM   23  C11 UNK     0       0.157   5.587   2.464  1.00  0.00    -0.000 C 
BRANCH  23  24
HETATM   24  C13 UNK     0       1.463   5.486   3.294  1.00  0.00    -0.005 C 
HETATM   25  C15 UNK     0       1.655   4.014   3.743  1.00  0.00     0.005 C 
ENDBRANCH  23  24
ENDBRANCH  22  23
ENDBRANCH  21  22
ENDBRANCH  20  21
ENDBRANCH  19  20
ENDBRANCH  18  19
ENDBRANCH  17  18
ENDBRANCH  16  17
ENDBRANCH  15  16
ENDBRANCH  14  15
ENDBRANCH   1  14
TORSDOF 14
ENDMDL
