MODEL 1
REMARK VINA RESULT:    -5.706      0.000      0.000
REMARK INTER + INTRA:         -11.302
REMARK INTER:                 -10.209
REMARK INTRA:                  -1.093
REMARK UNBOUND:                -1.093
REMARK  14 active torsions:
REMARK  status: ('A' for Active; 'I' for Inactive)
REMARK    1  A    between atoms: O1_1  and  C16_16 
REMARK    2  A    between atoms: O1_1  and  C14_14 
REMARK    3  A    between atoms: N2_2  and  C22_22 
REMARK    4  A    between atoms: C4_4  and  C5_5 
REMARK    5  A    between atoms: C4_4  and  C6_6 
REMARK    6  A    between atoms: C5_5  and  C7_7 
REMARK    7  A    between atoms: C6_6  and  C8_8 
REMARK    8  A    between atoms: C7_7  and  C9_9 
REMARK    9  A    between atoms: C8_8  and  C10_10 
REMARK   10  A    between atoms: C9_9  and  C11_11 
REMARK   11  A    between atoms: C10_10  and  C12_12 
REMARK   12  A    between atoms: C11_11  and  C13_13 
REMARK   13  A    between atoms: C12_12  and  C14_14 
REMARK   14  A    between atoms: C21_21  and  C22_22 
ROOT
HETATM    1  O1  UNK     0      -3.896   5.070   6.697  1.00  0.00    -0.351 OA
ENDROOT
BRANCH   1   2
HETATM    2  C16 UNK     0      -2.895   4.921   7.642  1.00  0.00     0.068 A 
HETATM    3  C18 UNK     0      -1.624   5.487   7.430  1.00  0.00     0.037 A 
HETATM    4  C20 UNK     0      -0.606   5.338   8.389  1.00  0.00     0.018 A 
HETATM    5  C21 UNK     0      -0.859   4.616   9.566  1.00  0.00     0.009 A 
HETATM    6  C19 UNK     0      -2.128   4.050   9.781  1.00  0.00     0.018 A 
HETATM    7  C17 UNK     0      -3.147   4.200   8.822  1.00  0.00     0.037 A 
BRANCH   5   8
HETATM    8  C22 UNK     0       0.214   4.455  10.587  1.00  0.00     0.123 C 
HETATM    9  N3  UNK     0       0.289   5.294  11.601  1.00  0.00    -0.384 N 
HETATM   10  H25 UNK     0       1.060   5.179  12.334  1.00  0.00     0.157 HD
HETATM   11  H33 UNK     0      -0.421   6.089  11.692  1.00  0.00     0.157 HD
BRANCH   8  12
HETATM   12  N2  UNK     0       1.142   3.417  10.468  1.00  0.00    -0.284 NA
HETATM   13  H23 UNK     0       2.158   3.634  10.213  1.00  0.00     0.188 HD
ENDBRANCH   8  12
ENDBRANCH   5   8
ENDBRANCH   1   2
BRANCH   1  14
HETATM   14  C14 UNK     0      -5.221   4.556   6.945  1.00  0.00     0.175 C 
BRANCH  14  15
HETATM   15  C12 UNK     0      -6.307   5.630   6.675  1.00  0.00     0.027 C 
BRANCH  15  16
HETATM   16  C10 UNK     0      -5.703   7.014   7.023  1.00  0.00     0.002 C 
BRANCH  16  17
HETATM   17  C8  UNK     0      -5.745   7.961   5.799  1.00  0.00     0.000 C 
BRANCH  17  18
HETATM   18  C6  UNK     0      -4.293   8.165   5.299  1.00  0.00     0.000 C 
BRANCH  18  19
HETATM   19  C4  UNK     0      -4.292   9.122   4.079  1.00  0.00     0.000 C 
BRANCH  19  20
HETATM   20  C5  UNK     0      -3.472   8.479   2.931  1.00  0.00     0.000 C 
BRANCH  20  21
HETATM   21  C7  UNK     0      -4.296   8.511   1.621  1.00  0.00     0.000 C 
BRANCH  21  22
HETATM   22  C9  UNK     0      -4.819   7.088   1.308  1.00  0.00     0.000 C 
BRANCH  22  23
HETATM   23  C11 UNK     0      -6.229   6.927   1.922  1.00  0.00    -0.000 C 
BRANCH  23  24
HETATM   24  C13 UNK     0      -7.159   6.221   0.903  1.00  0.00    -0.005 C 
HETATM   25  C15 UNK     0      -6.862   6.781  -0.513  1.00  0.00     0.005 C 
ENDBRANCH  23  24
ENDBRANCH  22  23
ENDBRANCH  21  22
ENDBRANCH  20  21
ENDBRANCH  19  20
ENDBRANCH  18  19
ENDBRANCH  17  18
ENDBRANCH  16  17
ENDBRANCH  15  16
ENDBRANCH  14  15
ENDBRANCH   1  14
TORSDOF 14
ENDMDL
MODEL 2
REMARK VINA RESULT:    -5.700     18.549     20.243
REMARK INTER + INTRA:         -11.292
REMARK INTER:                  -9.238
REMARK INTRA:                  -2.055
REMARK UNBOUND:                -1.093
REMARK  14 active torsions:
REMARK  status: ('A' for Active; 'I' for Inactive)
REMARK    1  A    between atoms: O1_1  and  C16_16 
REMARK    2  A    between atoms: O1_1  and  C14_14 
REMARK    3  A    between atoms: N2_2  and  C22_22 
REMARK    4  A    between atoms: C4_4  and  C5_5 
REMARK    5  A    between atoms: C4_4  and  C6_6 
REMARK    6  A    between atoms: C5_5  and  C7_7 
REMARK    7  A    between atoms: C6_6  and  C8_8 
REMARK    8  A    between atoms: C7_7  and  C9_9 
REMARK    9  A    between atoms: C8_8  and  C10_10 
REMARK   10  A    between atoms: C9_9  and  C11_11 
REMARK   11  A    between atoms: C10_10  and  C12_12 
REMARK   12  A    between atoms: C11_11  and  C13_13 
REMARK   13  A    between atoms: C12_12  and  C14_14 
REMARK   14  A    between atoms: C21_21  and  C22_22 
ROOT
HETATM    1  O1  UNK     0      -2.801 -11.711  -2.135  1.00  0.00    -0.351 OA
ENDROOT
BRANCH   1   2
HETATM    2  C16 UNK     0      -3.853 -10.899  -1.750  1.00  0.00     0.068 A 
HETATM    3  C18 UNK     0      -3.747 -10.087  -0.605  1.00  0.00     0.037 A 
HETATM    4  C20 UNK     0      -4.814  -9.259  -0.214  1.00  0.00     0.018 A 
HETATM    5  C21 UNK     0      -5.997  -9.243  -0.970  1.00  0.00     0.009 A 
HETATM    6  C19 UNK     0      -6.105 -10.052  -2.115  1.00  0.00     0.018 A 
HETATM    7  C17 UNK     0      -5.037 -10.880  -2.507  1.00  0.00     0.037 A 
BRANCH   5   8
HETATM    8  C22 UNK     0      -7.131  -8.368  -0.563  1.00  0.00     0.123 C 
HETATM    9  N3  UNK     0      -6.894  -7.167  -0.075  1.00  0.00    -0.384 N 
HETATM   10  H25 UNK     0      -7.709  -6.538   0.219  1.00  0.00     0.157 HD
HETATM   11  H33 UNK     0      -5.887  -6.820   0.028  1.00  0.00     0.157 HD
BRANCH   8  12
HETATM   12  N2  UNK     0      -8.447  -8.820  -0.697  1.00  0.00    -0.284 NA
HETATM   13  H23 UNK     0      -9.225  -8.133  -0.954  1.00  0.00     0.188 HD
ENDBRANCH   8  12
ENDBRANCH   5   8
ENDBRANCH   1   2
BRANCH   1  14
HETATM   14  C14 UNK     0      -1.456 -11.427  -1.695  1.00  0.00     0.175 C 
BRANCH  14  15
HETATM   15  C12 UNK     0      -0.601 -12.719  -1.613  1.00  0.00     0.027 C 
BRANCH  15  16
HETATM   16  C10 UNK     0       0.010 -12.794  -0.190  1.00  0.00     0.002 C 
BRANCH  16  17
HETATM   17  C8  UNK     0      -0.814 -11.948   0.812  1.00  0.00     0.000 C 
BRANCH  17  18
HETATM   18  C6  UNK     0      -0.881 -12.722   2.152  1.00  0.00     0.000 C 
BRANCH  18  19
HETATM   19  C4  UNK     0      -2.091 -13.690   2.134  1.00  0.00     0.000 C 
BRANCH  19  20
HETATM   20  C5  UNK     0      -3.353 -12.914   1.675  1.00  0.00     0.000 C 
BRANCH  20  21
HETATM   21  C7  UNK     0      -4.381 -13.903   1.071  1.00  0.00     0.000 C 
BRANCH  21  22
HETATM   22  C9  UNK     0      -3.863 -14.409  -0.298  1.00  0.00     0.000 C 
BRANCH  22  23
HETATM   23  C11 UNK     0      -5.016 -14.336  -1.326  1.00  0.00    -0.000 C 
BRANCH  23  24
HETATM   24  C13 UNK     0      -6.107 -15.372  -0.953  1.00  0.00    -0.005 C 
HETATM   25  C15 UNK     0      -6.040 -16.550  -1.960  1.00  0.00     0.005 C 
ENDBRANCH  23  24
ENDBRANCH  22  23
ENDBRANCH  21  22
ENDBRANCH  20  21
ENDBRANCH  19  20
ENDBRANCH  18  19
ENDBRANCH  17  18
ENDBRANCH  16  17
ENDBRANCH  15  16
ENDBRANCH  14  15
ENDBRANCH   1  14
TORSDOF 14
ENDMDL
MODEL 3
REMARK VINA RESULT:    -5.610      5.325      7.288
REMARK INTER + INTRA:         -11.132
REMARK INTER:                  -9.395
REMARK INTRA:                  -1.737
REMARK UNBOUND:                -1.093
REMARK  14 active torsions:
REMARK  status: ('A' for Active; 'I' for Inactive)
REMARK    1  A    between atoms: O1_1  and  C16_16 
REMARK    2  A    between atoms: O1_1  and  C14_14 
REMARK    3  A    between atoms: N2_2  and  C22_22 
REMARK    4  A    between atoms: C4_4  and  C5_5 
REMARK    5  A    between atoms: C4_4  and  C6_6 
REMARK    6  A    between atoms: C5_5  and  C7_7 
REMARK    7  A    between atoms: C6_6  and  C8_8 
REMARK    8  A    between atoms: C7_7  and  C9_9 
REMARK    9  A    between atoms: C8_8  and  C10_10 
REMARK   10  A    between atoms: C9_9  and  C11_11 
REMARK   11  A    between atoms: C10_10  and  C12_12 
REMARK   12  A    between atoms: C11_11  and  C13_13 
REMARK   13  A    between atoms: C12_12  and  C14_14 
REMARK   14  A    between atoms: C21_21  and  C22_22 
ROOT
HETATM    1  O1  UNK     0      -1.265   9.201   4.302  1.00  0.00    -0.351 OA
ENDROOT
BRANCH   1   2
HETATM    2  C16 UNK     0      -0.214  10.073   4.077  1.00  0.00     0.068 A 
HETATM    3  C18 UNK     0      -0.276  11.401   4.542  1.00  0.00     0.037 A 
HETATM    4  C20 UNK     0       0.791  12.288   4.315  1.00  0.00     0.018 A 
HETATM    5  C21 UNK     0       1.927  11.847   3.618  1.00  0.00     0.009 A 
HETATM    6  C19 UNK     0       1.992  10.522   3.154  1.00  0.00     0.018 A 
HETATM    7  C17 UNK     0       0.925   9.634   3.380  1.00  0.00     0.037 A 
BRANCH   5   8
HETATM    8  C22 UNK     0       3.062  12.781   3.376  1.00  0.00     0.123 C 
HETATM    9  N3  UNK     0       3.845  12.610   2.329  1.00  0.00    -0.384 N 
HETATM   10  H25 UNK     0       4.661  13.280   2.156  1.00  0.00     0.157 HD
HETATM   11  H33 UNK     0       3.664  11.801   1.653  1.00  0.00     0.157 HD
BRANCH   8  12
HETATM   12  N2  UNK     0       3.299  13.838   4.261  1.00  0.00    -0.284 NA
HETATM   13  H23 UNK     0       3.880  14.679   3.945  1.00  0.00     0.188 HD
ENDBRANCH   8  12
ENDBRANCH   5   8
ENDBRANCH   1   2
BRANCH   1  14
HETATM   14  C14 UNK     0      -1.105   7.785   4.072  1.00  0.00     0.175 C 
BRANCH  14  15
HETATM   15  C12 UNK     0      -1.569   6.955   5.297  1.00  0.00     0.027 C 
BRANCH  15  16
HETATM   16  C10 UNK     0      -2.280   7.918   6.282  1.00  0.00     0.002 C 
BRANCH  16  17
HETATM   17  C8  UNK     0      -3.743   7.477   6.530  1.00  0.00     0.000 C 
BRANCH  17  18
HETATM   18  C6  UNK     0      -4.667   8.370   5.663  1.00  0.00     0.000 C 
BRANCH  18  19
HETATM   19  C4  UNK     0      -5.054   7.614   4.366  1.00  0.00     0.000 C 
BRANCH  19  20
HETATM   20  C5  UNK     0      -4.633   8.465   3.140  1.00  0.00     0.000 C 
BRANCH  20  21
HETATM   21  C7  UNK     0      -4.595   9.962   3.534  1.00  0.00     0.000 C 
BRANCH  21  22
HETATM   22  C9  UNK     0      -3.833  10.759   2.447  1.00  0.00     0.000 C 
BRANCH  22  23
HETATM   23  C11 UNK     0      -4.407  12.193   2.384  1.00  0.00    -0.000 C 
BRANCH  23  24
HETATM   24  C13 UNK     0      -4.821  12.647   3.807  1.00  0.00    -0.005 C 
HETATM   25  C15 UNK     0      -3.834  13.743   4.287  1.00  0.00     0.005 C 
ENDBRANCH  23  24
ENDBRANCH  22  23
ENDBRANCH  21  22
ENDBRANCH  20  21
ENDBRANCH  19  20
ENDBRANCH  18  19
ENDBRANCH  17  18
ENDBRANCH  16  17
ENDBRANCH  15  16
ENDBRANCH  14  15
ENDBRANCH   1  14
TORSDOF 14
ENDMDL
MODEL 4
REMARK VINA RESULT:    -5.517      4.987      7.915
REMARK INTER + INTRA:         -10.964
REMARK INTER:                  -9.824
REMARK INTRA:                  -1.140
REMARK UNBOUND:                -1.093
REMARK  14 active torsions:
REMARK  status: ('A' for Active; 'I' for Inactive)
REMARK    1  A    between atoms: O1_1  and  C16_16 
REMARK    2  A    between atoms: O1_1  and  C14_14 
REMARK    3  A    between atoms: N2_2  and  C22_22 
REMARK    4  A    between atoms: C4_4  and  C5_5 
REMARK    5  A    between atoms: C4_4  and  C6_6 
REMARK    6  A    between atoms: C5_5  and  C7_7 
REMARK    7  A    between atoms: C6_6  and  C8_8 
REMARK    8  A    between atoms: C7_7  and  C9_9 
REMARK    9  A    between atoms: C8_8  and  C10_10 
REMARK   10  A    between atoms: C9_9  and  C11_11 
REMARK   11  A    between atoms: C10_10  and  C12_12 
REMARK   12  A    between atoms: C11_11  and  C13_13 
REMARK   13  A    between atoms: C12_12  and  C14_14 
REMARK   14  A    between atoms: C21_21  and  C22_22 
ROOT
HETATM    1  O1  UNK     0      -1.697   9.686   4.537  1.00  0.00    -0.351 OA
ENDROOT
BRANCH   1   2
HETATM    2  C16 UNK     0      -0.543  10.400   4.267  1.00  0.00     0.068 A 
HETATM    3  C18 UNK     0      -0.426  11.745   4.665  1.00  0.00     0.037 A 
HETATM    4  C20 UNK     0       0.747  12.472   4.393  1.00  0.00     0.018 A 
HETATM    5  C21 UNK     0       1.810  11.852   3.717  1.00  0.00     0.009 A 
HETATM    6  C19 UNK     0       1.696  10.508   3.319  1.00  0.00     0.018 A 
HETATM    7  C17 UNK     0       0.523   9.780   3.591  1.00  0.00     0.037 A 
BRANCH   5   8
HETATM    8  C22 UNK     0       3.056  12.614   3.427  1.00  0.00     0.123 C 
HETATM    9  N3  UNK     0       3.826  12.260   2.418  1.00  0.00    -0.384 N 
HETATM   10  H25 UNK     0       4.722  12.807   2.211  1.00  0.00     0.157 HD
HETATM   11  H33 UNK     0       3.556  11.425   1.806  1.00  0.00     0.157 HD
BRANCH   8  12
HETATM   12  N2  UNK     0       3.410  13.705   4.227  1.00  0.00    -0.284 NA
HETATM   13  H23 UNK     0       3.794  13.544   5.212  1.00  0.00     0.188 HD
ENDBRANCH   8  12
ENDBRANCH   5   8
ENDBRANCH   1   2
BRANCH   1  14
HETATM   14  C14 UNK     0      -1.626   8.372   5.128  1.00  0.00     0.175 C 
BRANCH  14  15
HETATM   15  C12 UNK     0      -2.887   8.061   5.975  1.00  0.00     0.027 C 
BRANCH  15  16
HETATM   16  C10 UNK     0      -4.028   7.670   5.002  1.00  0.00     0.002 C 
BRANCH  16  17
HETATM   17  C8  UNK     0      -5.407   8.093   5.566  1.00  0.00     0.000 C 
BRANCH  17  18
HETATM   18  C6  UNK     0      -5.755   7.148   6.743  1.00  0.00     0.000 C 
BRANCH  18  19
HETATM   19  C4  UNK     0      -6.316   5.813   6.189  1.00  0.00     0.000 C 
BRANCH  19  20
HETATM   20  C5  UNK     0      -5.805   4.645   7.072  1.00  0.00     0.000 C 
BRANCH  20  21
HETATM   21  C7  UNK     0      -4.314   4.368   6.757  1.00  0.00     0.000 C 
BRANCH  21  22
HETATM   22  C9  UNK     0      -3.489   4.453   8.065  1.00  0.00     0.000 C 
BRANCH  22  23
HETATM   23  C11 UNK     0      -2.149   5.165   7.766  1.00  0.00    -0.000 C 
BRANCH  23  24
HETATM   24  C13 UNK     0      -1.008   4.468   8.550  1.00  0.00    -0.005 C 
HETATM   25  C15 UNK     0       0.347   5.075   8.102  1.00  0.00     0.005 C 
ENDBRANCH  23  24
ENDBRANCH  22  23
ENDBRANCH  21  22
ENDBRANCH  20  21
ENDBRANCH  19  20
ENDBRANCH  18  19
ENDBRANCH  17  18
ENDBRANCH  16  17
ENDBRANCH  15  16
ENDBRANCH  14  15
ENDBRANCH   1  14
TORSDOF 14
ENDMDL
MODEL 5
REMARK VINA RESULT:    -5.485     19.703     21.463
REMARK INTER + INTRA:         -10.907
REMARK INTER:                  -9.966
REMARK INTRA:                  -0.941
REMARK UNBOUND:                -1.093
REMARK  14 active torsions:
REMARK  status: ('A' for Active; 'I' for Inactive)
REMARK    1  A    between atoms: O1_1  and  C16_16 
REMARK    2  A    between atoms: O1_1  and  C14_14 
REMARK    3  A    between atoms: N2_2  and  C22_22 
REMARK    4  A    between atoms: C4_4  and  C5_5 
REMARK    5  A    between atoms: C4_4  and  C6_6 
REMARK    6  A    between atoms: C5_5  and  C7_7 
REMARK    7  A    between atoms: C6_6  and  C8_8 
REMARK    8  A    between atoms: C7_7  and  C9_9 
REMARK    9  A    between atoms: C8_8  and  C10_10 
REMARK   10  A    between atoms: C9_9  and  C11_11 
REMARK   11  A    between atoms: C10_10  and  C12_12 
REMARK   12  A    between atoms: C11_11  and  C13_13 
REMARK   13  A    between atoms: C12_12  and  C14_14 
REMARK   14  A    between atoms: C21_21  and  C22_22 
ROOT
HETATM    1  O1  UNK     0      -3.481 -12.179  -2.123  1.00  0.00    -0.351 OA
ENDROOT
BRANCH   1   2
HETATM    2  C16 UNK     0      -4.138 -11.087  -1.582  1.00  0.00     0.068 A 
HETATM    3  C18 UNK     0      -3.634 -10.447  -0.434  1.00  0.00     0.037 A 
HETATM    4  C20 UNK     0      -4.300  -9.337   0.115  1.00  0.00     0.018 A 
HETATM    5  C21 UNK     0      -5.479  -8.865  -0.484  1.00  0.00     0.009 A 
HETATM    6  C19 UNK     0      -5.984  -9.502  -1.630  1.00  0.00     0.018 A 
HETATM    7  C17 UNK     0      -5.318 -10.612  -2.181  1.00  0.00     0.037 A 
BRANCH   5   8
HETATM    8  C22 UNK     0      -6.188  -7.689   0.092  1.00  0.00     0.123 C 
HETATM    9  N3  UNK     0      -7.433  -7.433  -0.260  1.00  0.00    -0.384 N 
HETATM   10  H25 UNK     0      -7.942  -6.587   0.153  1.00  0.00     0.157 HD
HETATM   11  H33 UNK     0      -7.933  -8.070  -0.959  1.00  0.00     0.157 HD
BRANCH   8  12
HETATM   12  N2  UNK     0      -5.535  -6.855   1.005  1.00  0.00    -0.284 NA
HETATM   13  H23 UNK     0      -5.964  -6.677   1.968  1.00  0.00     0.188 HD
ENDBRANCH   8  12
ENDBRANCH   5   8
ENDBRANCH   1   2
BRANCH   1  14
HETATM   14  C14 UNK     0      -4.154 -13.447  -2.261  1.00  0.00     0.175 C 
BRANCH  14  15
HETATM   15  C12 UNK     0      -4.718 -13.940  -0.902  1.00  0.00     0.027 C 
BRANCH  15  16
HETATM   16  C10 UNK     0      -5.804 -15.006  -1.198  1.00  0.00     0.002 C 
BRANCH  16  17
HETATM   17  C8  UNK     0      -5.753 -16.152  -0.158  1.00  0.00     0.000 C 
BRANCH  17  18
HETATM   18  C6  UNK     0      -7.046 -16.084   0.694  1.00  0.00     0.000 C 
BRANCH  18  19
HETATM   19  C4  UNK     0      -8.275 -16.391  -0.201  1.00  0.00     0.000 C 
BRANCH  19  20
HETATM   20  C5  UNK     0      -9.480 -15.547   0.288  1.00  0.00     0.000 C 
BRANCH  20  21
HETATM   21  C7  UNK     0     -10.611 -15.593  -0.768  1.00  0.00     0.000 C 
BRANCH  21  22
HETATM   22  C9  UNK     0     -11.951 -15.930  -0.070  1.00  0.00     0.000 C 
BRANCH  22  23
HETATM   23  C11 UNK     0     -11.742 -15.886   1.462  1.00  0.00    -0.000 C 
BRANCH  23  24
HETATM   24  C13 UNK     0     -12.339 -17.165   2.102  1.00  0.00    -0.005 C 
HETATM   25  C15 UNK     0     -13.664 -17.514   1.375  1.00  0.00     0.005 C 
ENDBRANCH  23  24
ENDBRANCH  22  23
ENDBRANCH  21  22
ENDBRANCH  20  21
ENDBRANCH  19  20
ENDBRANCH  18  19
ENDBRANCH  17  18
ENDBRANCH  16  17
ENDBRANCH  15  16
ENDBRANCH  14  15
ENDBRANCH   1  14
TORSDOF 14
ENDMDL
MODEL 6
REMARK VINA RESULT:    -5.482      2.086      3.796
REMARK INTER + INTRA:         -10.902
REMARK INTER:                  -9.928
REMARK INTRA:                  -0.974
REMARK UNBOUND:                -1.093
REMARK  14 active torsions:
REMARK  status: ('A' for Active; 'I' for Inactive)
REMARK    1  A    between atoms: O1_1  and  C16_16 
REMARK    2  A    between atoms: O1_1  and  C14_14 
REMARK    3  A    between atoms: N2_2  and  C22_22 
REMARK    4  A    between atoms: C4_4  and  C5_5 
REMARK    5  A    between atoms: C4_4  and  C6_6 
REMARK    6  A    between atoms: C5_5  and  C7_7 
REMARK    7  A    between atoms: C6_6  and  C8_8 
REMARK    8  A    between atoms: C7_7  and  C9_9 
REMARK    9  A    between atoms: C8_8  and  C10_10 
REMARK   10  A    between atoms: C9_9  and  C11_11 
REMARK   11  A    between atoms: C10_10  and  C12_12 
REMARK   12  A    between atoms: C11_11  and  C13_13 
REMARK   13  A    between atoms: C12_12  and  C14_14 
REMARK   14  A    between atoms: C21_21  and  C22_22 
ROOT
HETATM    1  O1  UNK     0      -3.561   5.282   6.671  1.00  0.00    -0.351 OA
ENDROOT
BRANCH   1   2
HETATM    2  C16 UNK     0      -2.598   5.075   7.644  1.00  0.00     0.068 A 
HETATM    3  C18 UNK     0      -2.921   4.394   8.834  1.00  0.00     0.037 A 
HETATM    4  C20 UNK     0      -1.944   4.181   9.823  1.00  0.00     0.018 A 
HETATM    5  C21 UNK     0      -0.637   4.653   9.624  1.00  0.00     0.009 A 
HETATM    6  C19 UNK     0      -0.312   5.332   8.437  1.00  0.00     0.018 A 
HETATM    7  C17 UNK     0      -1.288   5.545   7.447  1.00  0.00     0.037 A 
BRANCH   5   8
HETATM    8  C22 UNK     0       0.403   4.429  10.666  1.00  0.00     0.123 C 
HETATM    9  N3  UNK     0       0.493   5.249  11.694  1.00  0.00    -0.384 N 
HETATM   10  H25 UNK     0       1.241   5.089  12.443  1.00  0.00     0.157 HD
HETATM   11  H33 UNK     0      -0.182   6.075  11.781  1.00  0.00     0.157 HD
BRANCH   8  12
HETATM   12  N2  UNK     0       1.286   3.351  10.554  1.00  0.00    -0.284 NA
HETATM   13  H23 UNK     0       1.674   2.883  11.434  1.00  0.00     0.188 HD
ENDBRANCH   8  12
ENDBRANCH   5   8
ENDBRANCH   1   2
BRANCH   1  14
HETATM   14  C14 UNK     0      -4.689   4.391   6.554  1.00  0.00     0.175 C 
BRANCH  14  15
HETATM   15  C12 UNK     0      -6.019   5.176   6.408  1.00  0.00     0.027 C 
BRANCH  15  16
HETATM   16  C10 UNK     0      -5.767   6.630   6.883  1.00  0.00     0.002 C 
BRANCH  16  17
HETATM   17  C8  UNK     0      -5.923   7.630   5.711  1.00  0.00     0.000 C 
BRANCH  17  18
HETATM   18  C6  UNK     0      -4.506   8.061   5.256  1.00  0.00     0.000 C 
BRANCH  18  19
HETATM   19  C4  UNK     0      -4.620   9.165   4.174  1.00  0.00     0.000 C 
BRANCH  19  20
HETATM   20  C5  UNK     0      -3.221   9.790   3.939  1.00  0.00     0.000 C 
BRANCH  20  21
HETATM   21  C7  UNK     0      -2.148   8.962   4.690  1.00  0.00     0.000 C 
BRANCH  21  22
HETATM   22  C9  UNK     0      -0.805   9.731   4.677  1.00  0.00     0.000 C 
BRANCH  22  23
HETATM   23  C11 UNK     0      -0.083   9.456   3.337  1.00  0.00    -0.000 C 
BRANCH  23  24
HETATM   24  C13 UNK     0       0.986  10.550   3.091  1.00  0.00    -0.005 C 
HETATM   25  C15 UNK     0       0.771  11.695   4.116  1.00  0.00     0.005 C 
ENDBRANCH  23  24
ENDBRANCH  22  23
ENDBRANCH  21  22
ENDBRANCH  20  21
ENDBRANCH  19  20
ENDBRANCH  18  19
ENDBRANCH  17  18
ENDBRANCH  16  17
ENDBRANCH  15  16
ENDBRANCH  14  15
ENDBRANCH   1  14
TORSDOF 14
ENDMDL
MODEL 7
REMARK VINA RESULT:    -5.472      2.614      4.144
REMARK INTER + INTRA:         -10.883
REMARK INTER:                  -9.270
REMARK INTRA:                  -1.613
REMARK UNBOUND:                -1.093
REMARK  14 active torsions:
REMARK  status: ('A' for Active; 'I' for Inactive)
REMARK    1  A    between atoms: O1_1  and  C16_16 
REMARK    2  A    between atoms: O1_1  and  C14_14 
REMARK    3  A    between atoms: N2_2  and  C22_22 
REMARK    4  A    between atoms: C4_4  and  C5_5 
REMARK    5  A    between atoms: C4_4  and  C6_6 
REMARK    6  A    between atoms: C5_5  and  C7_7 
REMARK    7  A    between atoms: C6_6  and  C8_8 
REMARK    8  A    between atoms: C7_7  and  C9_9 
REMARK    9  A    between atoms: C8_8  and  C10_10 
REMARK   10  A    between atoms: C9_9  and  C11_11 
REMARK   11  A    between atoms: C10_10  and  C12_12 
REMARK   12  A    between atoms: C11_11  and  C13_13 
REMARK   13  A    between atoms: C12_12  and  C14_14 
REMARK   14  A    between atoms: C21_21  and  C22_22 
ROOT
HETATM    1  O1  UNK     0      -4.265   4.961   4.753  1.00  0.00    -0.351 OA
ENDROOT
BRANCH   1   2
HETATM    2  C16 UNK     0      -3.888   4.734   6.065  1.00  0.00     0.068 A 
HETATM    3  C18 UNK     0      -4.531   3.744   6.832  1.00  0.00     0.037 A 
HETATM    4  C20 UNK     0      -4.148   3.511   8.165  1.00  0.00     0.018 A 
HETATM    5  C21 UNK     0      -3.117   4.274   8.737  1.00  0.00     0.009 A 
HETATM    6  C19 UNK     0      -2.472   5.262   7.974  1.00  0.00     0.018 A 
HETATM    7  C17 UNK     0      -2.855   5.496   6.640  1.00  0.00     0.037 A 
BRANCH   5   8
HETATM    8  C22 UNK     0      -2.705   4.031  10.147  1.00  0.00     0.123 C 
HETATM    9  N3  UNK     0      -3.290   3.083  10.852  1.00  0.00    -0.384 N 
HETATM   10  H25 UNK     0      -2.994   2.909  11.865  1.00  0.00     0.157 HD
HETATM   11  H33 UNK     0      -4.060   2.486  10.410  1.00  0.00     0.157 HD
BRANCH   8  12
HETATM   12  N2  UNK     0      -1.699   4.811  10.726  1.00  0.00    -0.284 NA
HETATM   13  H23 UNK     0      -0.671   4.551  10.582  1.00  0.00     0.188 HD
ENDBRANCH   8  12
ENDBRANCH   5   8
ENDBRANCH   1   2
BRANCH   1  14
HETATM   14  C14 UNK     0      -5.624   5.327   4.433  1.00  0.00     0.175 C 
BRANCH  14  15
HETATM   15  C12 UNK     0      -5.729   6.819   4.024  1.00  0.00     0.027 C 
BRANCH  15  16
HETATM   16  C10 UNK     0      -5.682   7.670   5.319  1.00  0.00     0.002 C 
BRANCH  16  17
HETATM   17  C8  UNK     0      -4.880   8.976   5.094  1.00  0.00     0.000 C 
BRANCH  17  18
HETATM   18  C6  UNK     0      -3.655   8.641   4.207  1.00  0.00     0.000 C 
BRANCH  18  19
HETATM   19  C4  UNK     0      -2.384   8.549   5.090  1.00  0.00     0.000 C 
BRANCH  19  20
HETATM   20  C5  UNK     0      -1.141   8.401   4.173  1.00  0.00     0.000 C 
BRANCH  20  21
HETATM   21  C7  UNK     0      -1.466   7.432   3.009  1.00  0.00     0.000 C 
BRANCH  21  22
HETATM   22  C9  UNK     0      -1.010   6.002   3.390  1.00  0.00     0.000 C 
BRANCH  22  23
HETATM   23  C11 UNK     0       0.157   5.587   2.464  1.00  0.00    -0.000 C 
BRANCH  23  24
HETATM   24  C13 UNK     0       1.463   5.486   3.294  1.00  0.00    -0.005 C 
HETATM   25  C15 UNK     0       1.655   4.014   3.743  1.00  0.00     0.005 C 
ENDBRANCH  23  24
ENDBRANCH  22  23
ENDBRANCH  21  22
ENDBRANCH  20  21
ENDBRANCH  19  20
ENDBRANCH  18  19
ENDBRANCH  17  18
ENDBRANCH  16  17
ENDBRANCH  15  16
ENDBRANCH  14  15
ENDBRANCH   1  14
TORSDOF 14
ENDMDL
MODEL 8
REMARK VINA RESULT:    -5.449      9.318     11.801
REMARK INTER + INTRA:         -10.844
REMARK INTER:                  -8.401
REMARK INTRA:                  -2.442
REMARK UNBOUND:                -1.093
REMARK  14 active torsions:
REMARK  status: ('A' for Active; 'I' for Inactive)
REMARK    1  A    between atoms: O1_1  and  C16_16 
REMARK    2  A    between atoms: O1_1  and  C14_14 
REMARK    3  A    between atoms: N2_2  and  C22_22 
REMARK    4  A    between atoms: C4_4  and  C5_5 
REMARK    5  A    between atoms: C4_4  and  C6_6 
REMARK    6  A    between atoms: C5_5  and  C7_7 
REMARK    7  A    between atoms: C6_6  and  C8_8 
REMARK    8  A    between atoms: C7_7  and  C9_9 
REMARK    9  A    between atoms: C8_8  and  C10_10 
REMARK   10  A    between atoms: C9_9  and  C11_11 
REMARK   11  A    between atoms: C10_10  and  C12_12 
REMARK   12  A    between atoms: C11_11  and  C13_13 
REMARK   13  A    between atoms: C12_12  and  C14_14 
REMARK   14  A    between atoms: C21_21  and  C22_22 
ROOT
HETATM    1  O1  UNK     0      -5.523   6.520  -6.156  1.00  0.00    -0.351 OA
ENDROOT
BRANCH   1   2
HETATM    2  C16 UNK     0      -5.538   5.701  -5.040  1.00  0.00     0.068 A 
HETATM    3  C18 UNK     0      -5.307   6.236  -3.759  1.00  0.00     0.037 A 
HETATM    4  C20 UNK     0      -5.324   5.406  -2.624  1.00  0.00     0.018 A 
HETATM    5  C21 UNK     0      -5.571   4.032  -2.770  1.00  0.00     0.009 A 
HETATM    6  C19 UNK     0      -5.803   3.495  -4.048  1.00  0.00     0.018 A 
HETATM    7  C17 UNK     0      -5.787   4.325  -5.184  1.00  0.00     0.037 A 
BRANCH   5   8
HETATM    8  C22 UNK     0      -5.592   3.147  -1.572  1.00  0.00     0.123 C 
HETATM    9  N3  UNK     0      -4.950   3.504  -0.477  1.00  0.00    -0.384 N 
HETATM   10  H25 UNK     0      -4.965   2.868   0.383  1.00  0.00     0.157 HD
HETATM   11  H33 UNK     0      -4.415   4.430  -0.448  1.00  0.00     0.157 HD
BRANCH   8  12
HETATM   12  N2  UNK     0      -6.291   1.937  -1.608  1.00  0.00    -0.284 NA
HETATM   13  H23 UNK     0      -6.104   1.189  -0.867  1.00  0.00     0.188 HD
ENDBRANCH   8  12
ENDBRANCH   5   8
ENDBRANCH   1   2
BRANCH   1  14
HETATM   14  C14 UNK     0      -5.076   6.014  -7.431  1.00  0.00     0.175 C 
BRANCH  14  15
HETATM   15  C12 UNK     0      -3.610   6.426  -7.724  1.00  0.00     0.027 C 
BRANCH  15  16
HETATM   16  C10 UNK     0      -2.690   5.266  -7.264  1.00  0.00     0.002 C 
BRANCH  16  17
HETATM   17  C8  UNK     0      -2.000   5.606  -5.920  1.00  0.00     0.000 C 
BRANCH  17  18
HETATM   18  C6  UNK     0      -1.441   4.291  -5.321  1.00  0.00     0.000 C 
BRANCH  18  19
HETATM   19  C4  UNK     0      -2.088   4.034  -3.935  1.00  0.00     0.000 C 
BRANCH  19  20
HETATM   20  C5  UNK     0      -0.970   3.733  -2.904  1.00  0.00     0.000 C 
BRANCH  20  21
HETATM   21  C7  UNK     0      -0.494   5.054  -2.251  1.00  0.00     0.000 C 
BRANCH  21  22
HETATM   22  C9  UNK     0      -1.704   6.004  -2.076  1.00  0.00     0.000 C 
BRANCH  22  23
HETATM   23  C11 UNK     0      -1.186   7.457  -1.960  1.00  0.00    -0.000 C 
BRANCH  23  24
HETATM   24  C13 UNK     0      -1.155   8.108  -3.366  1.00  0.00    -0.005 C 
HETATM   25  C15 UNK     0      -1.557   9.600  -3.232  1.00  0.00     0.005 C 
ENDBRANCH  23  24
ENDBRANCH  22  23
ENDBRANCH  21  22
ENDBRANCH  20  21
ENDBRANCH  19  20
ENDBRANCH  18  19
ENDBRANCH  17  18
ENDBRANCH  16  17
ENDBRANCH  15  16
ENDBRANCH  14  15
ENDBRANCH   1  14
TORSDOF 14
ENDMDL
MODEL 9
REMARK VINA RESULT:    -5.424     19.003     20.781
REMARK INTER + INTRA:         -10.797
REMARK INTER:                  -9.392
REMARK INTRA:                  -1.406
REMARK UNBOUND:                -1.093
REMARK  14 active torsions:
REMARK  status: ('A' for Active; 'I' for Inactive)
REMARK    1  A    between atoms: O1_1  and  C16_16 
REMARK    2  A    between atoms: O1_1  and  C14_14 
REMARK    3  A    between atoms: N2_2  and  C22_22 
REMARK    4  A    between atoms: C4_4  and  C5_5 
REMARK    5  A    between atoms: C4_4  and  C6_6 
REMARK    6  A    between atoms: C5_5  and  C7_7 
REMARK    7  A    between atoms: C6_6  and  C8_8 
REMARK    8  A    between atoms: C7_7  and  C9_9 
REMARK    9  A    between atoms: C8_8  and  C10_10 
REMARK   10  A    between atoms: C9_9  and  C11_11 
REMARK   11  A    between atoms: C10_10  and  C12_12 
REMARK   12  A    between atoms: C11_11  and  C13_13 
REMARK   13  A    between atoms: C12_12  and  C14_14 
REMARK   14  A    between atoms: C21_21  and  C22_22 
ROOT
HETATM    1  O1  UNK     0      -2.946 -11.950  -1.827  1.00  0.00    -0.351 OA
ENDROOT
BRANCH   1   2
HETATM    2  C16 UNK     0      -3.912 -11.010  -1.513  1.00  0.00     0.068 A 
HETATM    3  C18 UNK     0      -3.700 -10.091  -0.467  1.00  0.00     0.037 A 
HETATM    4  C20 UNK     0      -4.679  -9.134  -0.148  1.00  0.00     0.018 A 
HETATM    5  C21 UNK     0      -5.879  -9.094  -0.876  1.00  0.00     0.009 A 
HETATM    6  C19 UNK     0      -6.092 -10.010  -1.921  1.00  0.00     0.018 A 
HETATM    7  C17 UNK     0      -5.113 -10.968  -2.242  1.00  0.00     0.037 A 
BRANCH   5   8
HETATM    8  C22 UNK     0      -6.919  -8.082  -0.544  1.00  0.00     0.123 C 
HETATM    9  N3  UNK     0      -6.568  -6.916  -0.040  1.00  0.00    -0.384 N 
HETATM   10  H25 UNK     0      -7.316  -6.189   0.200  1.00  0.00     0.157 HD
HETATM   11  H33 UNK     0      -5.535  -6.697   0.131  1.00  0.00     0.157 HD
BRANCH   8  12
HETATM   12  N2  UNK     0      -8.270  -8.369  -0.766  1.00  0.00    -0.284 NA
HETATM   13  H23 UNK     0      -9.003  -7.596  -0.671  1.00  0.00     0.188 HD
ENDBRANCH   8  12
ENDBRANCH   5   8
ENDBRANCH   1   2
BRANCH   1  14
HETATM   14  C14 UNK     0      -1.556 -11.700  -1.534  1.00  0.00     0.175 C 
BRANCH  14  15
HETATM   15  C12 UNK     0      -1.039 -12.626  -0.401  1.00  0.00     0.027 C 
BRANCH  15  16
HETATM   16  C10 UNK     0      -2.121 -13.704  -0.139  1.00  0.00     0.002 C 
BRANCH  16  17
HETATM   17  C8  UNK     0      -2.728 -13.546   1.277  1.00  0.00     0.000 C 
BRANCH  17  18
HETATM   18  C6  UNK     0      -4.245 -13.849   1.185  1.00  0.00     0.000 C 
BRANCH  18  19
HETATM   19  C4  UNK     0      -4.565 -14.487  -0.191  1.00  0.00     0.000 C 
BRANCH  19  20
HETATM   20  C5  UNK     0      -5.258 -15.856   0.035  1.00  0.00     0.000 C 
BRANCH  20  21
HETATM   21  C7  UNK     0      -6.707 -15.629   0.532  1.00  0.00     0.000 C 
BRANCH  21  22
HETATM   22  C9  UNK     0      -7.696 -16.328  -0.433  1.00  0.00     0.000 C 
BRANCH  22  23
HETATM   23  C11 UNK     0      -9.132 -15.859  -0.103  1.00  0.00    -0.000 C 
BRANCH  23  24
HETATM   24  C13 UNK     0      -9.261 -15.626   1.424  1.00  0.00    -0.005 C 
HETATM   25  C15 UNK     0     -10.546 -16.334   1.928  1.00  0.00     0.005 C 
ENDBRANCH  23  24
ENDBRANCH  22  23
ENDBRANCH  21  22
ENDBRANCH  20  21
ENDBRANCH  19  20
ENDBRANCH  18  19
ENDBRANCH  17  18
ENDBRANCH  16  17
ENDBRANCH  15  16
ENDBRANCH  14  15
ENDBRANCH   1  14
TORSDOF 14
ENDMDL
