MODEL 7
REMARK VINA RESULT:    -6.510     14.746     17.489
REMARK INTER + INTRA:          -9.213
REMARK INTER:                  -8.799
REMARK INTRA:                  -0.414
REMARK UNBOUND:                -0.419
REMARK  8 active torsions:
REMARK  status: ('A' for Active; 'I' for Inactive)
REMARK    1  A    between atoms: C3_3  and  C19_19 
REMARK    2  A    between atoms: C6_6  and  C7_7 
REMARK    3  A    between atoms: C8_8  and  C9_9 
REMARK    4  A    between atoms: C12_12  and  C16_16 
REMARK    5  A    between atoms: C14_14  and  O15_15 
REMARK    6  A    between atoms: C16_16  and  N18_18 
REMARK    7  A    between atoms: C16_16  and  N17_17 
REMARK    8  A    between atoms: C19_19  and  N21_21 
ROOT
HETATM    1  C1  UNK     0     -16.734  -5.029   4.442  1.00  0.00     0.012 A 
HETATM    2  C2  UNK     0     -17.228  -6.359   4.772  1.00  0.00     0.016 A 
HETATM    3  C3  UNK     0     -17.365  -7.367   3.731  1.00  0.00     0.009 A 
HETATM    4  C4  UNK     0     -17.006  -7.049   2.358  1.00  0.00     0.016 A 
HETATM    5  C5  UNK     0     -16.515  -5.721   2.028  1.00  0.00     0.012 A 
HETATM    6  C6  UNK     0     -16.378  -4.710   3.065  1.00  0.00    -0.036 A 
ENDROOT
BRANCH   6   7
HETATM    7  C7  UNK     0     -15.851  -3.309   2.677  1.00  0.00     0.012 C 
HETATM    8  C8  UNK     0     -15.104  -3.108   1.497  1.00  0.00     0.015 C 
BRANCH   8   9
HETATM    9  C9  UNK     0     -14.883  -1.670   0.973  1.00  0.00    -0.003 A 
HETATM   10  C10 UNK     0     -15.921  -0.677   1.200  1.00  0.00     0.015 A 
HETATM   11  C11 UNK     0     -15.749   0.683   0.717  1.00  0.00     0.016 A 
HETATM   12  C12 UNK     0     -14.537   1.053   0.006  1.00  0.00     0.011 A 
HETATM   13  C13 UNK     0     -13.495   0.064  -0.223  1.00  0.00     0.052 A 
HETATM   14  C14 UNK     0     -13.667  -1.299   0.259  1.00  0.00     0.076 A 
BRANCH  12  15
HETATM   15  C16 UNK     0     -14.362   2.498  -0.500  1.00  0.00     0.124 C 
BRANCH  15  16
HETATM   16  N18 UNK     0     -14.737   3.614   0.345  1.00  0.00    -0.284 NA
HETATM   17  H34 UNK     0     -14.903   4.580  -0.086  1.00  0.00     0.188 HD
ENDBRANCH  15  16
BRANCH  15  18
HETATM   18  N17 UNK     0     -13.856   2.724  -1.749  1.00  0.00    -0.384 N 
HETATM   19  H32 UNK     0     -13.353   3.644  -1.963  1.00  0.00     0.157 HD
HETATM   20  H17 UNK     0     -13.963   1.983  -2.513  1.00  0.00     0.157 HD
ENDBRANCH  15  18
ENDBRANCH  12  15
BRANCH  14  21
HETATM   21  O15 UNK     0     -12.642  -2.268   0.034  1.00  0.00    -0.360 OA
HETATM   22  H31 UNK     0     -12.168  -2.072  -0.882  1.00  0.00     0.217 HD
ENDBRANCH  14  21
ENDBRANCH   8   9
ENDBRANCH   6   7
BRANCH   3  23
HETATM   23  C19 UNK     0     -17.894  -8.775   4.081  1.00  0.00     0.123 C 
HETATM   24  N20 UNK     0     -17.033  -9.833   4.141  1.00  0.00    -0.384 N 
HETATM   25  H35 UNK     0     -15.992  -9.687   3.945  1.00  0.00     0.157 HD
HETATM   26  H18 UNK     0     -17.401 -10.808   4.384  1.00  0.00     0.157 HD
BRANCH  23  27
HETATM   27  N21 UNK     0     -19.304  -8.968   4.348  1.00  0.00    -0.284 NA
HETATM   28  H36 UNK     0     -19.961  -9.273   3.560  1.00  0.00     0.188 HD
ENDBRANCH  23  27
ENDBRANCH   3  23
TORSDOF 8
ENDMDL
