MODEL 1
REMARK VINA RESULT:    -7.139      0.000      0.000
REMARK INTER + INTRA:         -10.063
REMARK INTER:                  -9.644
REMARK INTRA:                  -0.419
REMARK UNBOUND:                -0.419
REMARK  8 active torsions:
REMARK  status: ('A' for Active; 'I' for Inactive)
REMARK    1  A    between atoms: C3_3  and  C19_19 
REMARK    2  A    between atoms: C6_6  and  C7_7 
REMARK    3  A    between atoms: C8_8  and  C9_9 
REMARK    4  A    between atoms: C12_12  and  C16_16 
REMARK    5  A    between atoms: C14_14  and  O15_15 
REMARK    6  A    between atoms: C16_16  and  N18_18 
REMARK    7  A    between atoms: C16_16  and  N17_17 
REMARK    8  A    between atoms: C19_19  and  N21_21 
ROOT
HETATM    1  C1  UNK     0      -4.444   5.567   5.085  1.00  0.00     0.012 A 
HETATM    2  C2  UNK     0      -5.532   5.414   4.128  1.00  0.00     0.016 A 
HETATM    3  C3  UNK     0      -6.818   4.885   4.562  1.00  0.00     0.009 A 
HETATM    4  C4  UNK     0      -7.020   4.512   5.953  1.00  0.00     0.016 A 
HETATM    5  C5  UNK     0      -5.933   4.662   6.907  1.00  0.00     0.012 A 
HETATM    6  C6  UNK     0      -4.646   5.189   6.478  1.00  0.00    -0.036 A 
ENDROOT
BRANCH   6   7
HETATM    7  C7  UNK     0      -3.515   5.336   7.522  1.00  0.00     0.012 C 
HETATM    8  C8  UNK     0      -2.657   4.259   7.829  1.00  0.00     0.015 C 
BRANCH   8   9
HETATM    9  C9  UNK     0      -1.351   4.527   8.613  1.00  0.00    -0.003 A 
HETATM   10  C10 UNK     0      -0.168   4.942   7.876  1.00  0.00     0.015 A 
HETATM   11  C11 UNK     0       1.079   5.197   8.579  1.00  0.00     0.016 A 
HETATM   12  C12 UNK     0       1.143   5.039  10.022  1.00  0.00     0.011 A 
HETATM   13  C13 UNK     0      -0.038   4.625  10.764  1.00  0.00     0.052 A 
HETATM   14  C14 UNK     0      -1.286   4.368  10.061  1.00  0.00     0.076 A 
BRANCH  12  15
HETATM   15  C16 UNK     0       2.468   5.314  10.760  1.00  0.00     0.124 C 
BRANCH  15  16
HETATM   16  N18 UNK     0       2.990   6.664  10.836  1.00  0.00    -0.284 NA
HETATM   17  H34 UNK     0       2.426   7.480  10.433  1.00  0.00     0.188 HD
ENDBRANCH  15  16
BRANCH  15  18
HETATM   18  N17 UNK     0       3.151   4.282  11.339  1.00  0.00    -0.384 N 
HETATM   19  H32 UNK     0       3.898   3.757  10.782  1.00  0.00     0.157 HD
HETATM   20  H17 UNK     0       2.939   4.000  12.349  1.00  0.00     0.157 HD
ENDBRANCH  15  18
ENDBRANCH  12  15
BRANCH  14  21
HETATM   21  O15 UNK     0      -2.445   3.963  10.791  1.00  0.00    -0.360 OA
HETATM   22  H31 UNK     0      -2.926   4.810  11.183  1.00  0.00     0.217 HD
ENDBRANCH  14  21
ENDBRANCH   8   9
ENDBRANCH   6   7
BRANCH   3  23
HETATM   23  C19 UNK     0      -7.968   4.718   3.546  1.00  0.00     0.123 C 
HETATM   24  N20 UNK     0      -9.153   4.168   3.940  1.00  0.00    -0.384 N 
HETATM   25  H35 UNK     0      -9.285   3.852   4.954  1.00  0.00     0.157 HD
HETATM   26  H18 UNK     0      -9.950   4.052   3.236  1.00  0.00     0.157 HD
BRANCH  23  27
HETATM   27  N21 UNK     0      -7.786   5.149   2.175  1.00  0.00    -0.284 NA
HETATM   28  H36 UNK     0      -8.415   5.913   1.766  1.00  0.00     0.188 HD
ENDBRANCH  23  27
ENDBRANCH   3  23
TORSDOF 8
ENDMDL
MODEL 2
REMARK VINA RESULT:    -6.907      5.900      9.349
REMARK INTER + INTRA:          -9.749
REMARK INTER:                  -9.333
REMARK INTRA:                  -0.417
REMARK UNBOUND:                -0.419
REMARK  8 active torsions:
REMARK  status: ('A' for Active; 'I' for Inactive)
REMARK    1  A    between atoms: C3_3  and  C19_19 
REMARK    2  A    between atoms: C6_6  and  C7_7 
REMARK    3  A    between atoms: C8_8  and  C9_9 
REMARK    4  A    between atoms: C12_12  and  C16_16 
REMARK    5  A    between atoms: C14_14  and  O15_15 
REMARK    6  A    between atoms: C16_16  and  N18_18 
REMARK    7  A    between atoms: C16_16  and  N17_17 
REMARK    8  A    between atoms: C19_19  and  N21_21 
ROOT
HETATM    1  C1  UNK     0       0.679   9.532   3.388  1.00  0.00     0.012 A 
HETATM    2  C2  UNK     0       1.841  10.376   3.148  1.00  0.00     0.016 A 
HETATM    3  C3  UNK     0       1.856  11.752   3.626  1.00  0.00     0.009 A 
HETATM    4  C4  UNK     0       0.711  12.284   4.348  1.00  0.00     0.016 A 
HETATM    5  C5  UNK     0      -0.450  11.441   4.585  1.00  0.00     0.012 A 
HETATM    6  C6  UNK     0      -0.470  10.067   4.108  1.00  0.00    -0.036 A 
ENDROOT
BRANCH   6   7
HETATM    7  C7  UNK     0      -1.721   9.200   4.381  1.00  0.00     0.012 C 
HETATM    8  C8  UNK     0      -1.875   8.497   5.594  1.00  0.00     0.015 C 
BRANCH   8   9
HETATM    9  C9  UNK     0      -3.261   7.920   5.968  1.00  0.00    -0.003 A 
HETATM   10  C10 UNK     0      -4.441   8.460   5.311  1.00  0.00     0.015 A 
HETATM   11  C11 UNK     0      -5.760   7.946   5.641  1.00  0.00     0.016 A 
HETATM   12  C12 UNK     0      -5.901   6.890   6.629  1.00  0.00     0.011 A 
HETATM   13  C13 UNK     0      -4.723   6.346   7.289  1.00  0.00     0.052 A 
HETATM   14  C14 UNK     0      -3.402   6.861   6.960  1.00  0.00     0.076 A 
BRANCH  12  15
HETATM   15  C16 UNK     0      -7.302   6.350   6.972  1.00  0.00     0.124 C 
BRANCH  15  16
HETATM   16  N18 UNK     0      -7.664   4.992   6.617  1.00  0.00    -0.284 NA
HETATM   17  H34 UNK     0      -8.669   4.651   6.758  1.00  0.00     0.188 HD
ENDBRANCH  15  16
BRANCH  15  18
HETATM   18  N17 UNK     0      -8.205   7.154   7.608  1.00  0.00    -0.384 N 
HETATM   19  H32 UNK     0      -7.892   8.095   8.010  1.00  0.00     0.157 HD
HETATM   20  H17 UNK     0      -9.224   6.843   7.706  1.00  0.00     0.157 HD
ENDBRANCH  15  18
ENDBRANCH  12  15
BRANCH  14  21
HETATM   21  O15 UNK     0      -2.247   6.325   7.607  1.00  0.00    -0.360 OA
HETATM   22  H31 UNK     0      -1.406   6.461   6.993  1.00  0.00     0.217 HD
ENDBRANCH  14  21
ENDBRANCH   8   9
ENDBRANCH   6   7
BRANCH   3  23
HETATM   23  C19 UNK     0       3.086  12.649   3.366  1.00  0.00     0.123 C 
HETATM   24  N20 UNK     0       3.903  12.394   2.303  1.00  0.00    -0.384 N 
HETATM   25  H35 UNK     0       3.693  11.574   1.650  1.00  0.00     0.157 HD
HETATM   26  H18 UNK     0       4.755  13.016   2.123  1.00  0.00     0.157 HD
BRANCH  23  27
HETATM   27  N21 UNK     0       3.366  13.760   4.251  1.00  0.00    -0.284 NA
HETATM   28  H36 UNK     0       3.337  13.620   5.312  1.00  0.00     0.188 HD
ENDBRANCH  23  27
ENDBRANCH   3  23
TORSDOF 8
ENDMDL
MODEL 3
REMARK VINA RESULT:    -6.749      6.122     10.225
REMARK INTER + INTRA:          -9.536
REMARK INTER:                  -9.127
REMARK INTRA:                  -0.409
REMARK UNBOUND:                -0.419
REMARK  8 active torsions:
REMARK  status: ('A' for Active; 'I' for Inactive)
REMARK    1  A    between atoms: C3_3  and  C19_19 
REMARK    2  A    between atoms: C6_6  and  C7_7 
REMARK    3  A    between atoms: C8_8  and  C9_9 
REMARK    4  A    between atoms: C12_12  and  C16_16 
REMARK    5  A    between atoms: C14_14  and  O15_15 
REMARK    6  A    between atoms: C16_16  and  N18_18 
REMARK    7  A    between atoms: C16_16  and  N17_17 
REMARK    8  A    between atoms: C19_19  and  N21_21 
ROOT
HETATM    1  C1  UNK     0       0.666   9.505   3.398  1.00  0.00     0.012 A 
HETATM    2  C2  UNK     0       1.807  10.378   3.164  1.00  0.00     0.016 A 
HETATM    3  C3  UNK     0       1.788  11.751   3.648  1.00  0.00     0.009 A 
HETATM    4  C4  UNK     0       0.629  12.252   4.370  1.00  0.00     0.016 A 
HETATM    5  C5  UNK     0      -0.511  11.381   4.601  1.00  0.00     0.012 A 
HETATM    6  C6  UNK     0      -0.497  10.008   4.118  1.00  0.00    -0.036 A 
ENDROOT
BRANCH   6   7
HETATM    7  C7  UNK     0      -1.728   9.111   4.385  1.00  0.00     0.012 C 
HETATM    8  C8  UNK     0      -2.999   9.438   3.868  1.00  0.00     0.015 C 
BRANCH   8   9
HETATM    9  C9  UNK     0      -4.118   8.370   3.868  1.00  0.00    -0.003 A 
HETATM   10  C10 UNK     0      -4.794   8.068   5.120  1.00  0.00     0.015 A 
HETATM   11  C11 UNK     0      -5.845   7.066   5.159  1.00  0.00     0.016 A 
HETATM   12  C12 UNK     0      -6.225   6.365   3.944  1.00  0.00     0.011 A 
HETATM   13  C13 UNK     0      -5.553   6.664   2.688  1.00  0.00     0.052 A 
HETATM   14  C14 UNK     0      -4.498   7.666   2.649  1.00  0.00     0.076 A 
BRANCH  12  15
HETATM   15  C16 UNK     0      -7.343   5.306   3.993  1.00  0.00     0.124 C 
BRANCH  15  16
HETATM   16  N18 UNK     0      -7.958   4.842   2.766  1.00  0.00    -0.284 NA
HETATM   17  H34 UNK     0      -8.158   3.799   2.628  1.00  0.00     0.188 HD
ENDBRANCH  15  16
BRANCH  15  18
HETATM   18  N17 UNK     0      -7.755   4.807   5.197  1.00  0.00    -0.384 N 
HETATM   19  H32 UNK     0      -8.673   4.262   5.263  1.00  0.00     0.157 HD
HETATM   20  H17 UNK     0      -7.160   4.962   6.072  1.00  0.00     0.157 HD
ENDBRANCH  15  18
ENDBRANCH  12  15
BRANCH  14  21
HETATM   21  O15 UNK     0      -3.840   7.959   1.416  1.00  0.00    -0.360 OA
HETATM   22  H31 UNK     0      -3.578   8.976   1.391  1.00  0.00     0.217 HD
ENDBRANCH  14  21
ENDBRANCH   8   9
ENDBRANCH   6   7
BRANCH   3  23
HETATM   23  C19 UNK     0       2.996  12.678   3.394  1.00  0.00     0.123 C 
HETATM   24  N20 UNK     0       3.809  12.462   2.319  1.00  0.00    -0.384 N 
HETATM   25  H35 UNK     0       3.610  11.649   1.652  1.00  0.00     0.157 HD
HETATM   26  H18 UNK     0       4.646  13.105   2.144  1.00  0.00     0.157 HD
BRANCH  23  27
HETATM   27  N21 UNK     0       3.261  13.778   4.297  1.00  0.00    -0.284 NA
HETATM   28  H36 UNK     0       2.667  14.667   4.248  1.00  0.00     0.188 HD
ENDBRANCH  23  27
ENDBRANCH   3  23
TORSDOF 8
ENDMDL
MODEL 4
REMARK VINA RESULT:    -6.720      6.133      7.019
REMARK INTER + INTRA:          -9.496
REMARK INTER:                  -9.089
REMARK INTRA:                  -0.407
REMARK UNBOUND:                -0.419
REMARK  8 active torsions:
REMARK  status: ('A' for Active; 'I' for Inactive)
REMARK    1  A    between atoms: C3_3  and  C19_19 
REMARK    2  A    between atoms: C6_6  and  C7_7 
REMARK    3  A    between atoms: C8_8  and  C9_9 
REMARK    4  A    between atoms: C12_12  and  C16_16 
REMARK    5  A    between atoms: C14_14  and  O15_15 
REMARK    6  A    between atoms: C16_16  and  N18_18 
REMARK    7  A    between atoms: C16_16  and  N17_17 
REMARK    8  A    between atoms: C19_19  and  N21_21 
ROOT
HETATM    1  C1  UNK     0      -4.698   8.186   5.062  1.00  0.00     0.012 A 
HETATM    2  C2  UNK     0      -5.799   7.233   5.068  1.00  0.00     0.016 A 
HETATM    3  C3  UNK     0      -6.233   6.610   3.826  1.00  0.00     0.009 A 
HETATM    4  C4  UNK     0      -5.565   6.934   2.576  1.00  0.00     0.016 A 
HETATM    5  C5  UNK     0      -4.467   7.888   2.570  1.00  0.00     0.012 A 
HETATM    6  C6  UNK     0      -4.030   8.514   3.809  1.00  0.00    -0.036 A 
ENDROOT
BRANCH   6   7
HETATM    7  C7  UNK     0      -2.858   9.521   3.763  1.00  0.00     0.012 C 
HETATM    8  C8  UNK     0      -1.672   9.298   4.492  1.00  0.00     0.015 C 
BRANCH   8   9
HETATM    9  C9  UNK     0      -0.412  10.136   4.170  1.00  0.00    -0.003 A 
HETATM   10  C10 UNK     0      -0.369  11.524   4.602  1.00  0.00     0.015 A 
HETATM   11  C11 UNK     0       0.795  12.344   4.312  1.00  0.00     0.016 A 
HETATM   12  C12 UNK     0       1.922  11.775   3.591  1.00  0.00     0.011 A 
HETATM   13  C13 UNK     0       1.884  10.386   3.158  1.00  0.00     0.052 A 
HETATM   14  C14 UNK     0       0.717   9.566   3.446  1.00  0.00     0.076 A 
BRANCH  12  15
HETATM   15  C16 UNK     0       3.153  12.650   3.289  1.00  0.00     0.124 C 
BRANCH  15  16
HETATM   16  N18 UNK     0       3.452  13.796   4.125  1.00  0.00    -0.284 NA
HETATM   17  H34 UNK     0       3.129  13.813   5.146  1.00  0.00     0.188 HD
ENDBRANCH  15  16
BRANCH  15  18
HETATM   18  N17 UNK     0       3.962  12.346   2.231  1.00  0.00    -0.384 N 
HETATM   19  H32 UNK     0       4.135  13.072   1.465  1.00  0.00     0.157 HD
HETATM   20  H17 UNK     0       4.422  11.382   2.168  1.00  0.00     0.157 HD
ENDBRANCH  15  18
ENDBRANCH  12  15
BRANCH  14  21
HETATM   21  O15 UNK     0       0.683   8.202   3.021  1.00  0.00    -0.360 OA
HETATM   22  H31 UNK     0       1.663   7.856   2.875  1.00  0.00     0.217 HD
ENDBRANCH  14  21
ENDBRANCH   8   9
ENDBRANCH   6   7
BRANCH   3  23
HETATM   23  C19 UNK     0      -7.405   5.604   3.833  1.00  0.00     0.123 C 
HETATM   24  N20 UNK     0      -8.138   5.418   4.969  1.00  0.00    -0.384 N 
HETATM   25  H35 UNK     0      -7.901   5.968   5.855  1.00  0.00     0.157 HD
HETATM   26  H18 UNK     0      -8.951   4.721   4.973  1.00  0.00     0.157 HD
BRANCH  23  27
HETATM   27  N21 UNK     0      -7.725   4.864   2.631  1.00  0.00    -0.284 NA
HETATM   28  H36 UNK     0      -7.593   3.802   2.605  1.00  0.00     0.188 HD
ENDBRANCH  23  27
ENDBRANCH   3  23
TORSDOF 8
ENDMDL
MODEL 5
REMARK VINA RESULT:    -6.677     13.078     17.774
REMARK INTER + INTRA:          -9.438
REMARK INTER:                  -9.052
REMARK INTRA:                  -0.387
REMARK UNBOUND:                -0.419
REMARK  8 active torsions:
REMARK  status: ('A' for Active; 'I' for Inactive)
REMARK    1  A    between atoms: C3_3  and  C19_19 
REMARK    2  A    between atoms: C6_6  and  C7_7 
REMARK    3  A    between atoms: C8_8  and  C9_9 
REMARK    4  A    between atoms: C12_12  and  C16_16 
REMARK    5  A    between atoms: C14_14  and  O15_15 
REMARK    6  A    between atoms: C16_16  and  N18_18 
REMARK    7  A    between atoms: C16_16  and  N17_17 
REMARK    8  A    between atoms: C19_19  and  N21_21 
ROOT
HETATM    1  C1  UNK     0     -16.670  -6.901   0.960  1.00  0.00     0.012 A 
HETATM    2  C2  UNK     0     -17.037  -8.299   0.778  1.00  0.00     0.016 A 
HETATM    3  C3  UNK     0     -16.986  -8.901  -0.547  1.00  0.00     0.009 A 
HETATM    4  C4  UNK     0     -16.565  -8.109  -1.691  1.00  0.00     0.016 A 
HETATM    5  C5  UNK     0     -16.201  -6.713  -1.510  1.00  0.00     0.012 A 
HETATM    6  C6  UNK     0     -16.252  -6.106  -0.188  1.00  0.00    -0.036 A 
ENDROOT
BRANCH   6   7
HETATM    7  C7  UNK     0     -15.856  -4.620  -0.034  1.00  0.00     0.012 C 
HETATM    8  C8  UNK     0     -15.274  -4.137   1.157  1.00  0.00     0.015 C 
BRANCH   8   9
HETATM    9  C9  UNK     0     -14.594  -2.747   1.161  1.00  0.00    -0.003 A 
HETATM   10  C10 UNK     0     -15.326  -1.614   1.705  1.00  0.00     0.015 A 
HETATM   11  C11 UNK     0     -14.721  -0.293   1.720  1.00  0.00     0.016 A 
HETATM   12  C12 UNK     0     -13.380  -0.102   1.193  1.00  0.00     0.011 A 
HETATM   13  C13 UNK     0     -12.644  -1.233   0.648  1.00  0.00     0.052 A 
HETATM   14  C14 UNK     0     -13.249  -2.556   0.630  1.00  0.00     0.076 A 
BRANCH  12  15
HETATM   15  C16 UNK     0     -12.746   1.302   1.215  1.00  0.00     0.124 C 
BRANCH  15  16
HETATM   16  N18 UNK     0     -12.797   2.140   0.033  1.00  0.00    -0.284 NA
HETATM   17  H34 UNK     0     -12.104   2.948  -0.080  1.00  0.00     0.188 HD
ENDBRANCH  15  16
BRANCH  15  18
HETATM   18  N17 UNK     0     -12.132   1.753   2.349  1.00  0.00    -0.384 N 
HETATM   19  H32 UNK     0     -11.076   1.928   2.351  1.00  0.00     0.157 HD
HETATM   20  H17 UNK     0     -12.706   1.931   3.233  1.00  0.00     0.157 HD
ENDBRANCH  15  18
ENDBRANCH  12  15
BRANCH  14  21
HETATM   21  O15 UNK     0     -12.524  -3.664   0.097  1.00  0.00    -0.360 OA
HETATM   22  H31 UNK     0     -12.801  -3.815  -0.905  1.00  0.00     0.217 HD
ENDBRANCH  14  21
ENDBRANCH   8   9
ENDBRANCH   6   7
BRANCH   3  23
HETATM   23  C19 UNK     0     -17.382 -10.381  -0.739  1.00  0.00     0.123 C 
HETATM   24  N20 UNK     0     -18.455 -10.894  -0.070  1.00  0.00    -0.384 N 
HETATM   25  H35 UNK     0     -19.023 -10.271   0.589  1.00  0.00     0.157 HD
HETATM   26  H18 UNK     0     -18.728 -11.920  -0.204  1.00  0.00     0.157 HD
BRANCH  23  27
HETATM   27  N21 UNK     0     -16.612 -11.221  -1.633  1.00  0.00    -0.284 NA
HETATM   28  H36 UNK     0     -15.873 -10.786  -2.274  1.00  0.00     0.188 HD
ENDBRANCH  23  27
ENDBRANCH   3  23
TORSDOF 8
ENDMDL
MODEL 6
REMARK VINA RESULT:    -6.578     15.155     17.683
REMARK INTER + INTRA:          -9.305
REMARK INTER:                  -8.895
REMARK INTRA:                  -0.411
REMARK UNBOUND:                -0.419
REMARK  8 active torsions:
REMARK  status: ('A' for Active; 'I' for Inactive)
REMARK    1  A    between atoms: C3_3  and  C19_19 
REMARK    2  A    between atoms: C6_6  and  C7_7 
REMARK    3  A    between atoms: C8_8  and  C9_9 
REMARK    4  A    between atoms: C12_12  and  C16_16 
REMARK    5  A    between atoms: C14_14  and  O15_15 
REMARK    6  A    between atoms: C16_16  and  N18_18 
REMARK    7  A    between atoms: C16_16  and  N17_17 
REMARK    8  A    between atoms: C19_19  and  N21_21 
ROOT
HETATM    1  C1  UNK     0     -16.613  -5.702   2.301  1.00  0.00     0.012 A 
HETATM    2  C2  UNK     0     -16.990  -6.993   2.861  1.00  0.00     0.016 A 
HETATM    3  C3  UNK     0     -17.227  -7.128   4.291  1.00  0.00     0.009 A 
HETATM    4  C4  UNK     0     -17.091  -5.972   5.164  1.00  0.00     0.016 A 
HETATM    5  C5  UNK     0     -16.713  -4.684   4.604  1.00  0.00     0.012 A 
HETATM    6  C6  UNK     0     -16.474  -4.545   3.176  1.00  0.00    -0.036 A 
ENDROOT
BRANCH   6   7
HETATM    7  C7  UNK     0     -16.075  -3.160   2.618  1.00  0.00     0.012 C 
HETATM    8  C8  UNK     0     -15.202  -3.038   1.516  1.00  0.00     0.015 C 
BRANCH   8   9
HETATM    9  C9  UNK     0     -15.088  -1.680   0.783  1.00  0.00    -0.003 A 
HETATM   10  C10 UNK     0     -16.216  -0.764   0.833  1.00  0.00     0.015 A 
HETATM   11  C11 UNK     0     -16.146   0.518   0.151  1.00  0.00     0.016 A 
HETATM   12  C12 UNK     0     -14.946   0.886  -0.581  1.00  0.00     0.011 A 
HETATM   13  C13 UNK     0     -13.815  -0.027  -0.633  1.00  0.00     0.052 A 
HETATM   14  C14 UNK     0     -13.884  -1.311   0.047  1.00  0.00     0.076 A 
BRANCH  12  15
HETATM   15  C16 UNK     0     -14.881   2.248  -1.299  1.00  0.00     0.124 C 
BRANCH  15  16
HETATM   16  N18 UNK     0     -13.610   2.930  -1.446  1.00  0.00    -0.284 NA
HETATM   17  H34 UNK     0     -13.125   2.959  -2.400  1.00  0.00     0.188 HD
ENDBRANCH  15  16
BRANCH  15  18
HETATM   18  N17 UNK     0     -16.022   2.812  -1.794  1.00  0.00    -0.384 N 
HETATM   19  H32 UNK     0     -16.971   2.359  -1.597  1.00  0.00     0.157 HD
HETATM   20  H17 UNK     0     -15.967   3.706  -2.379  1.00  0.00     0.157 HD
ENDBRANCH  15  18
ENDBRANCH  12  15
BRANCH  14  21
HETATM   21  O15 UNK     0     -12.771  -2.205  -0.004  1.00  0.00    -0.360 OA
HETATM   22  H31 UNK     0     -13.034  -3.061  -0.554  1.00  0.00     0.217 HD
ENDBRANCH  14  21
ENDBRANCH   8   9
ENDBRANCH   6   7
BRANCH   3  23
HETATM   23  C19 UNK     0     -17.620  -8.498   4.885  1.00  0.00     0.123 C 
HETATM   24  N20 UNK     0     -18.824  -8.651   5.508  1.00  0.00    -0.384 N 
HETATM   25  H35 UNK     0     -19.497  -7.823   5.586  1.00  0.00     0.157 HD
HETATM   26  H18 UNK     0     -19.096  -9.601   5.919  1.00  0.00     0.157 HD
BRANCH  23  27
HETATM   27  N21 UNK     0     -16.709  -9.617   4.776  1.00  0.00    -0.284 NA
HETATM   28  H36 UNK     0     -15.973  -9.636   3.999  1.00  0.00     0.188 HD
ENDBRANCH  23  27
ENDBRANCH   3  23
TORSDOF 8
ENDMDL
MODEL 7
REMARK VINA RESULT:    -6.510     14.746     17.489
REMARK INTER + INTRA:          -9.213
REMARK INTER:                  -8.799
REMARK INTRA:                  -0.414
REMARK UNBOUND:                -0.419
REMARK  8 active torsions:
REMARK  status: ('A' for Active; 'I' for Inactive)
REMARK    1  A    between atoms: C3_3  and  C19_19 
REMARK    2  A    between atoms: C6_6  and  C7_7 
REMARK    3  A    between atoms: C8_8  and  C9_9 
REMARK    4  A    between atoms: C12_12  and  C16_16 
REMARK    5  A    between atoms: C14_14  and  O15_15 
REMARK    6  A    between atoms: C16_16  and  N18_18 
REMARK    7  A    between atoms: C16_16  and  N17_17 
REMARK    8  A    between atoms: C19_19  and  N21_21 
ROOT
HETATM    1  C1  UNK     0     -16.734  -5.029   4.442  1.00  0.00     0.012 A 
HETATM    2  C2  UNK     0     -17.228  -6.359   4.772  1.00  0.00     0.016 A 
HETATM    3  C3  UNK     0     -17.365  -7.367   3.731  1.00  0.00     0.009 A 
HETATM    4  C4  UNK     0     -17.006  -7.049   2.358  1.00  0.00     0.016 A 
HETATM    5  C5  UNK     0     -16.515  -5.721   2.028  1.00  0.00     0.012 A 
HETATM    6  C6  UNK     0     -16.378  -4.710   3.065  1.00  0.00    -0.036 A 
ENDROOT
BRANCH   6   7
HETATM    7  C7  UNK     0     -15.851  -3.309   2.677  1.00  0.00     0.012 C 
HETATM    8  C8  UNK     0     -15.104  -3.108   1.497  1.00  0.00     0.015 C 
BRANCH   8   9
HETATM    9  C9  UNK     0     -14.883  -1.670   0.973  1.00  0.00    -0.003 A 
HETATM   10  C10 UNK     0     -15.921  -0.677   1.200  1.00  0.00     0.015 A 
HETATM   11  C11 UNK     0     -15.749   0.683   0.717  1.00  0.00     0.016 A 
HETATM   12  C12 UNK     0     -14.537   1.053   0.006  1.00  0.00     0.011 A 
HETATM   13  C13 UNK     0     -13.495   0.064  -0.223  1.00  0.00     0.052 A 
HETATM   14  C14 UNK     0     -13.667  -1.299   0.259  1.00  0.00     0.076 A 
BRANCH  12  15
HETATM   15  C16 UNK     0     -14.362   2.498  -0.500  1.00  0.00     0.124 C 
BRANCH  15  16
HETATM   16  N18 UNK     0     -14.737   3.614   0.345  1.00  0.00    -0.284 NA
HETATM   17  H34 UNK     0     -14.903   4.580  -0.086  1.00  0.00     0.188 HD
ENDBRANCH  15  16
BRANCH  15  18
HETATM   18  N17 UNK     0     -13.856   2.724  -1.749  1.00  0.00    -0.384 N 
HETATM   19  H32 UNK     0     -13.353   3.644  -1.963  1.00  0.00     0.157 HD
HETATM   20  H17 UNK     0     -13.963   1.983  -2.513  1.00  0.00     0.157 HD
ENDBRANCH  15  18
ENDBRANCH  12  15
BRANCH  14  21
HETATM   21  O15 UNK     0     -12.642  -2.268   0.034  1.00  0.00    -0.360 OA
HETATM   22  H31 UNK     0     -12.168  -2.072  -0.882  1.00  0.00     0.217 HD
ENDBRANCH  14  21
ENDBRANCH   8   9
ENDBRANCH   6   7
BRANCH   3  23
HETATM   23  C19 UNK     0     -17.894  -8.775   4.081  1.00  0.00     0.123 C 
HETATM   24  N20 UNK     0     -17.033  -9.833   4.141  1.00  0.00    -0.384 N 
HETATM   25  H35 UNK     0     -15.992  -9.687   3.945  1.00  0.00     0.157 HD
HETATM   26  H18 UNK     0     -17.401 -10.808   4.384  1.00  0.00     0.157 HD
BRANCH  23  27
HETATM   27  N21 UNK     0     -19.304  -8.968   4.348  1.00  0.00    -0.284 NA
HETATM   28  H36 UNK     0     -19.961  -9.273   3.560  1.00  0.00     0.188 HD
ENDBRANCH  23  27
ENDBRANCH   3  23
TORSDOF 8
ENDMDL
MODEL 8
REMARK VINA RESULT:    -6.487     13.090     17.743
REMARK INTER + INTRA:          -9.181
REMARK INTER:                  -8.772
REMARK INTRA:                  -0.409
REMARK UNBOUND:                -0.419
REMARK  8 active torsions:
REMARK  status: ('A' for Active; 'I' for Inactive)
REMARK    1  A    between atoms: C3_3  and  C19_19 
REMARK    2  A    between atoms: C6_6  and  C7_7 
REMARK    3  A    between atoms: C8_8  and  C9_9 
REMARK    4  A    between atoms: C12_12  and  C16_16 
REMARK    5  A    between atoms: C14_14  and  O15_15 
REMARK    6  A    between atoms: C16_16  and  N18_18 
REMARK    7  A    between atoms: C16_16  and  N17_17 
REMARK    8  A    between atoms: C19_19  and  N21_21 
ROOT
HETATM    1  C1  UNK     0     -16.260  -6.679  -1.556  1.00  0.00     0.012 A 
HETATM    2  C2  UNK     0     -16.614  -8.086  -1.677  1.00  0.00     0.016 A 
HETATM    3  C3  UNK     0     -16.977  -8.852  -0.493  1.00  0.00     0.009 A 
HETATM    4  C4  UNK     0     -16.990  -8.211   0.813  1.00  0.00     0.016 A 
HETATM    5  C5  UNK     0     -16.634  -6.807   0.933  1.00  0.00     0.012 A 
HETATM    6  C6  UNK     0     -16.269  -6.038  -0.247  1.00  0.00    -0.036 A 
ENDROOT
BRANCH   6   7
HETATM    7  C7  UNK     0     -15.898  -4.546  -0.081  1.00  0.00     0.012 C 
HETATM    8  C8  UNK     0     -15.456  -4.035   1.158  1.00  0.00     0.015 C 
BRANCH   8   9
HETATM    9  C9  UNK     0     -14.785  -2.642   1.210  1.00  0.00    -0.003 A 
HETATM   10  C10 UNK     0     -13.558  -2.431   0.459  1.00  0.00     0.015 A 
HETATM   11  C11 UNK     0     -12.897  -1.137   0.489  1.00  0.00     0.016 A 
HETATM   12  C12 UNK     0     -13.464  -0.050   1.269  1.00  0.00     0.011 A 
HETATM   13  C13 UNK     0     -14.693  -0.256   2.022  1.00  0.00     0.052 A 
HETATM   14  C14 UNK     0     -15.354  -1.552   1.994  1.00  0.00     0.076 A 
BRANCH  12  15
HETATM   15  C16 UNK     0     -12.758   1.319   1.294  1.00  0.00     0.124 C 
BRANCH  15  16
HETATM   16  N18 UNK     0     -12.033   1.741   2.476  1.00  0.00    -0.284 NA
HETATM   17  H34 UNK     0     -12.544   1.837   3.412  1.00  0.00     0.188 HD
ENDBRANCH  15  16
BRANCH  15  18
HETATM   18  N17 UNK     0     -12.819   2.136   0.201  1.00  0.00    -0.384 N 
HETATM   19  H32 UNK     0     -12.767   1.718  -0.782  1.00  0.00     0.157 HD
HETATM   20  H17 UNK     0     -12.918   3.194   0.328  1.00  0.00     0.157 HD
ENDBRANCH  15  18
ENDBRANCH  12  15
BRANCH  14  21
HETATM   21  O15 UNK     0     -16.561  -1.752   2.731  1.00  0.00    -0.360 OA
HETATM   22  H31 UNK     0     -17.357  -1.282   2.235  1.00  0.00     0.217 HD
ENDBRANCH  14  21
ENDBRANCH   8   9
ENDBRANCH   6   7
BRANCH   3  23
HETATM   23  C19 UNK     0     -17.347 -10.345  -0.620  1.00  0.00     0.123 C 
HETATM   24  N20 UNK     0     -18.323 -10.877   0.173  1.00  0.00    -0.384 N 
HETATM   25  H35 UNK     0     -18.832 -10.260   0.883  1.00  0.00     0.157 HD
HETATM   26  H18 UNK     0     -18.579 -11.912   0.083  1.00  0.00     0.157 HD
BRANCH  23  27
HETATM   27  N21 UNK     0     -16.658 -11.178  -1.584  1.00  0.00    -0.284 NA
HETATM   28  H36 UNK     0     -16.536 -10.840  -2.592  1.00  0.00     0.188 HD
ENDBRANCH  23  27
ENDBRANCH   3  23
TORSDOF 8
ENDMDL
MODEL 9
REMARK VINA RESULT:    -6.471      6.257      7.119
REMARK INTER + INTRA:          -9.161
REMARK INTER:                  -8.740
REMARK INTRA:                  -0.420
REMARK UNBOUND:                -0.419
REMARK  8 active torsions:
REMARK  status: ('A' for Active; 'I' for Inactive)
REMARK    1  A    between atoms: C3_3  and  C19_19 
REMARK    2  A    between atoms: C6_6  and  C7_7 
REMARK    3  A    between atoms: C8_8  and  C9_9 
REMARK    4  A    between atoms: C12_12  and  C16_16 
REMARK    5  A    between atoms: C14_14  and  O15_15 
REMARK    6  A    between atoms: C16_16  and  N18_18 
REMARK    7  A    between atoms: C16_16  and  N17_17 
REMARK    8  A    between atoms: C19_19  and  N21_21 
ROOT
HETATM    1  C1  UNK     0      -4.527   8.487   5.164  1.00  0.00     0.012 A 
HETATM    2  C2  UNK     0      -5.807   7.931   5.578  1.00  0.00     0.016 A 
HETATM    3  C3  UNK     0      -5.873   7.004   6.698  1.00  0.00     0.009 A 
HETATM    4  C4  UNK     0      -4.660   6.634   7.410  1.00  0.00     0.016 A 
HETATM    5  C5  UNK     0      -3.381   7.187   6.994  1.00  0.00     0.012 A 
HETATM    6  C6  UNK     0      -3.310   8.113   5.874  1.00  0.00    -0.036 A 
ENDROOT
BRANCH   6   7
HETATM    7  C7  UNK     0      -1.933   8.683   5.463  1.00  0.00     0.012 C 
HETATM    8  C8  UNK     0      -1.757   9.363   4.240  1.00  0.00     0.015 C 
BRANCH   8   9
HETATM    9  C9  UNK     0      -0.475  10.198   4.011  1.00  0.00    -0.003 A 
HETATM   10  C10 UNK     0      -0.473  11.597   4.408  1.00  0.00     0.015 A 
HETATM   11  C11 UNK     0       0.712  12.412   4.202  1.00  0.00     0.016 A 
HETATM   12  C12 UNK     0       1.900  11.829   3.602  1.00  0.00     0.011 A 
HETATM   13  C13 UNK     0       1.903  10.429   3.204  1.00  0.00     0.052 A 
HETATM   14  C14 UNK     0       0.717   9.612   3.408  1.00  0.00     0.076 A 
BRANCH  12  15
HETATM   15  C16 UNK     0       3.153  12.700   3.390  1.00  0.00     0.124 C 
BRANCH  15  16
HETATM   16  N18 UNK     0       3.431  13.803   4.290  1.00  0.00    -0.284 NA
HETATM   17  H34 UNK     0       2.965  14.753   4.131  1.00  0.00     0.188 HD
ENDBRANCH  15  16
BRANCH  15  18
HETATM   18  N17 UNK     0       3.999  12.434   2.351  1.00  0.00    -0.384 N 
HETATM   19  H32 UNK     0       5.058  12.486   2.498  1.00  0.00     0.157 HD
HETATM   20  H17 UNK     0       3.604  12.174   1.392  1.00  0.00     0.157 HD
ENDBRANCH  15  18
ENDBRANCH  12  15
BRANCH  14  21
HETATM   21  O15 UNK     0       0.723   8.238   3.018  1.00  0.00    -0.360 OA
HETATM   22  H31 UNK     0       1.351   7.694   3.660  1.00  0.00     0.217 HD
ENDBRANCH  14  21
ENDBRANCH   8   9
ENDBRANCH   6   7
BRANCH   3  23
HETATM   23  C19 UNK     0      -7.231   6.410   7.133  1.00  0.00     0.123 C 
HETATM   24  N20 UNK     0      -8.194   7.221   7.660  1.00  0.00    -0.384 N 
HETATM   25  H35 UNK     0      -8.009   8.269   7.772  1.00  0.00     0.157 HD
HETATM   26  H18 UNK     0      -9.134   6.809   7.960  1.00  0.00     0.157 HD
BRANCH  23  27
HETATM   27  N21 UNK     0      -7.479   4.992   6.977  1.00  0.00    -0.284 NA
HETATM   28  H36 UNK     0      -8.483   4.630   6.893  1.00  0.00     0.188 HD
ENDBRANCH  23  27
ENDBRANCH   3  23
TORSDOF 8
ENDMDL
