MODEL 1
REMARK VINA RESULT:    -7.703      0.000      0.000
REMARK INTER + INTRA:         -15.363
REMARK INTER:                 -12.432
REMARK INTRA:                  -2.930
REMARK UNBOUND:                -2.930
REMARK  11 active torsions:
REMARK  status: ('A' for Active; 'I' for Inactive)
REMARK    1  A    between atoms: S1_1  and  C9_9 
REMARK    2  A    between atoms: S1_1  and  N4_4 
REMARK       I    between atoms: N2_2  and  C3_3 
REMARK    3  A    between atoms: C3_3  and  C14_14 
REMARK    4  A    between atoms: C5_5  and  C6_6 
REMARK       I    between atoms: C5_5  and  N7_7 
REMARK    5  A    between atoms: N7_7  and  C13_13 
REMARK       I    between atoms: C8_8  and  N23_23 
REMARK       I    between atoms: C8_8  and  N26_26 
REMARK    6  A    between atoms: C10_10  and  O28_28 
REMARK    7  A    between atoms: C10_10  and  C13_13 
REMARK    8  A    between atoms: C13_13  and  C34_34 
REMARK    9  A    between atoms: N23_23  and  C35_35 
REMARK   10  A    between atoms: C34_34  and  C37_37 
REMARK   11  A    between atoms: C35_35  and  C37_37 
ROOT
HETATM    1  S1  UNK     0      -4.873   6.270   4.626  1.00  0.00     0.243 S 
HETATM    2  O11 UNK     0      -4.711   4.861   4.220  1.00  0.00    -0.206 OA
HETATM    3  O12 UNK     0      -3.722   6.678   5.454  1.00  0.00    -0.206 OA
ENDROOT
BRANCH   1   4
HETATM    4  C9  UNK     0      -6.370   6.414   5.603  1.00  0.00     0.074 A 
HETATM    5  C24 UNK     0      -7.528   5.673   5.249  1.00  0.00     0.025 A 
HETATM    6  C29 UNK     0      -8.718   5.805   6.011  1.00  0.00     0.008 A 
HETATM    7  C31 UNK     0      -8.754   6.679   7.128  1.00  0.00    -0.062 A 
HETATM    8  C30 UNK     0      -7.595   7.421   7.486  1.00  0.00     0.008 A 
HETATM    9  C36 UNK     0     -10.055   6.826   7.954  1.00  0.00     0.048 C 
HETATM   10  C25 UNK     0      -6.406   7.287   6.723  1.00  0.00     0.025 A 
ENDBRANCH   1   4
BRANCH   1  11
HETATM   11  N4  UNK     0      -4.893   7.230   3.245  1.00  0.00    -0.206 NA
HETATM   12  C19 UNK     0      -3.425   7.586   3.140  1.00  0.00     0.108 C 
HETATM   13  C21 UNK     0      -2.742   6.898   1.902  1.00  0.00     0.029 C 
HETATM   14  C14 UNK     0      -3.557   7.353   0.643  1.00  0.00     0.080 C 
HETATM   15  C22 UNK     0      -5.006   6.727   0.710  1.00  0.00     0.029 C 
HETATM   16  C18 UNK     0      -5.368   6.261   2.180  1.00  0.00     0.108 C 
BRANCH  14  17
HETATM   17  C3  UNK     0      -2.863   6.959  -0.710  1.00  0.00     0.224 C 
HETATM   18  N2  UNK     0      -2.038   7.865  -1.438  1.00  0.00    -0.338 N 
HETATM   19  C27 UNK     0      -1.580   9.223  -0.944  1.00  0.00     0.127 C 
HETATM   20  C6  UNK     0      -2.183   8.035  -2.935  1.00  0.00     0.179 C 
HETATM   21  C33 UNK     0      -1.616  10.211  -2.162  1.00  0.00     0.022 C 
HETATM   22  C32 UNK     0      -1.344   9.269  -3.365  1.00  0.00     0.037 C 
HETATM   23  O16 UNK     0      -3.089   5.841  -1.195  1.00  0.00    -0.273 OA
BRANCH  20  24
HETATM   24  C5  UNK     0      -1.682   6.786  -3.707  1.00  0.00     0.241 C 
HETATM   25  N7  UNK     0      -2.677   5.932  -4.244  1.00  0.00    -0.345 N 
HETATM   26  H40 UNK     0      -3.662   6.347  -4.289  1.00  0.00     0.163 HD
HETATM   27  O17 UNK     0      -0.476   6.519  -3.809  1.00  0.00    -0.271 OA
BRANCH  25  28
HETATM   28  C13 UNK     0      -2.545   4.521  -4.762  1.00  0.00     0.182 C 
BRANCH  28  29
HETATM   29  C10 UNK     0      -1.863   3.645  -3.683  1.00  0.00     0.163 C 
HETATM   30  O20 UNK     0      -2.553   3.025  -2.862  1.00  0.00    -0.648 OA
BRANCH  29  31
HETATM   31  O28 UNK     0      -0.475   3.542  -3.645  1.00  0.00    -0.775 OA
HETATM   32  H58 UNK     0      -0.194   2.540  -3.782  1.00  0.00     0.167 HD
ENDBRANCH  29  31
ENDBRANCH  28  29
BRANCH  28  33
HETATM   33  C34 UNK     0      -3.959   3.926  -5.095  1.00  0.00     0.038 C 
BRANCH  33  34
HETATM   34  C37 UNK     0      -5.022   4.981  -4.606  1.00  0.00     0.023 C 
BRANCH  34  35
HETATM   35  C35 UNK     0      -5.967   4.403  -3.502  1.00  0.00     0.138 C 
BRANCH  35  36
HETATM   36  N23 UNK     0      -5.172   4.289  -2.227  1.00  0.00    -0.225 N 
HETATM   37  C8  UNK     0      -5.317   3.166  -1.383  1.00  0.00     0.686 C 
HETATM   38  N15 UNK     0      -6.149   2.182  -1.718  1.00  0.00    -0.118 NA
HETATM   39  N26 UNK     0      -4.574   3.086  -0.182  1.00  0.00    -0.234 N 
HETATM   40  H42 UNK     0      -6.257   1.332  -1.077  1.00  0.00     0.206 HD
HETATM   41  H55 UNK     0      -4.680   2.235   0.457  1.00  0.00     0.174 HD
HETATM   42  H54 UNK     0      -3.905   3.877   0.086  1.00  0.00     0.174 HD
HETATM   43  H51 UNK     0      -4.489   5.067  -1.957  1.00  0.00     0.177 HD
ENDBRANCH  35  36
ENDBRANCH  34  35
ENDBRANCH  33  34
ENDBRANCH  28  33
ENDBRANCH  25  28
ENDBRANCH  20  24
ENDBRANCH  14  17
ENDBRANCH   1  11
TORSDOF 11
ENDMDL
MODEL 2
REMARK VINA RESULT:    -6.987      2.393      3.676
REMARK INTER + INTRA:         -14.207
REMARK INTER:                 -12.492
REMARK INTRA:                  -1.715
REMARK UNBOUND:                -2.930
REMARK  11 active torsions:
REMARK  status: ('A' for Active; 'I' for Inactive)
REMARK    1  A    between atoms: S1_1  and  C9_9 
REMARK    2  A    between atoms: S1_1  and  N4_4 
REMARK       I    between atoms: N2_2  and  C3_3 
REMARK    3  A    between atoms: C3_3  and  C14_14 
REMARK    4  A    between atoms: C5_5  and  C6_6 
REMARK       I    between atoms: C5_5  and  N7_7 
REMARK    5  A    between atoms: N7_7  and  C13_13 
REMARK       I    between atoms: C8_8  and  N23_23 
REMARK       I    between atoms: C8_8  and  N26_26 
REMARK    6  A    between atoms: C10_10  and  O28_28 
REMARK    7  A    between atoms: C10_10  and  C13_13 
REMARK    8  A    between atoms: C13_13  and  C34_34 
REMARK    9  A    between atoms: N23_23  and  C35_35 
REMARK   10  A    between atoms: C34_34  and  C37_37 
REMARK   11  A    between atoms: C35_35  and  C37_37 
ROOT
HETATM    1  S1  UNK     0      -7.355   5.502   6.243  1.00  0.00     0.243 S 
HETATM    2  O11 UNK     0      -8.183   4.459   5.610  1.00  0.00    -0.206 OA
HETATM    3  O12 UNK     0      -6.341   4.868   7.107  1.00  0.00    -0.206 OA
ENDROOT
BRANCH   1   4
HETATM    4  C9  UNK     0      -8.414   6.535   7.257  1.00  0.00     0.074 A 
HETATM    5  C24 UNK     0      -9.796   6.233   7.384  1.00  0.00     0.025 A 
HETATM    6  C29 UNK     0     -10.637   7.065   8.169  1.00  0.00     0.008 A 
HETATM    7  C31 UNK     0     -10.099   8.201   8.828  1.00  0.00    -0.062 A 
HETATM    8  C30 UNK     0      -8.715   8.504   8.704  1.00  0.00     0.008 A 
HETATM    9  C36 UNK     0     -11.019   9.109   9.679  1.00  0.00     0.048 C 
HETATM   10  C25 UNK     0      -7.876   7.671   7.918  1.00  0.00     0.025 A 
ENDBRANCH   1   4
BRANCH   1  11
HETATM   11  N4  UNK     0      -6.555   6.360   5.039  1.00  0.00    -0.206 NA
HETATM   12  C19 UNK     0      -5.131   5.907   5.281  1.00  0.00     0.108 C 
HETATM   13  C21 UNK     0      -4.602   4.989   4.119  1.00  0.00     0.029 C 
HETATM   14  C14 UNK     0      -4.745   5.826   2.801  1.00  0.00     0.080 C 
HETATM   15  C22 UNK     0      -6.278   6.039   2.487  1.00  0.00     0.029 C 
HETATM   16  C18 UNK     0      -7.172   5.799   3.772  1.00  0.00     0.108 C 
BRANCH  14  17
HETATM   17  C3  UNK     0      -4.032   5.156   1.572  1.00  0.00     0.224 C 
HETATM   18  N2  UNK     0      -2.658   5.381   1.269  1.00  0.00    -0.338 N 
HETATM   19  C27 UNK     0      -1.676   6.123   2.154  1.00  0.00     0.127 C 
HETATM   20  C6  UNK     0      -2.200   5.683  -0.141  1.00  0.00     0.179 C 
HETATM   21  C33 UNK     0      -0.746   6.977   1.224  1.00  0.00     0.022 C 
HETATM   22  C32 UNK     0      -0.717   6.138  -0.082  1.00  0.00     0.037 C 
HETATM   23  O16 UNK     0      -4.702   4.454   0.800  1.00  0.00    -0.273 OA
BRANCH  20  24
HETATM   24  C5  UNK     0      -2.312   4.439  -1.062  1.00  0.00     0.241 C 
HETATM   25  N7  UNK     0      -3.454   4.371  -1.900  1.00  0.00    -0.345 N 
HETATM   26  H40 UNK     0      -3.998   5.286  -2.008  1.00  0.00     0.163 HD
HETATM   27  O17 UNK     0      -1.475   3.525  -1.034  1.00  0.00    -0.271 OA
BRANCH  25  28
HETATM   28  C13 UNK     0      -4.010   3.193  -2.661  1.00  0.00     0.182 C 
BRANCH  28  29
HETATM   29  C10 UNK     0      -4.995   2.421  -1.751  1.00  0.00     0.163 C 
HETATM   30  O20 UNK     0      -6.177   2.279  -2.097  1.00  0.00    -0.648 OA
BRANCH  29  31
HETATM   31  O28 UNK     0      -4.550   1.870  -0.552  1.00  0.00    -0.775 OA
HETATM   32  H58 UNK     0      -3.746   1.222  -0.740  1.00  0.00     0.167 HD
ENDBRANCH  29  31
ENDBRANCH  28  29
BRANCH  28  33
HETATM   33  C34 UNK     0      -4.765   3.682  -3.947  1.00  0.00     0.038 C 
BRANCH  33  34
HETATM   34  C37 UNK     0      -5.567   4.975  -3.540  1.00  0.00     0.023 C 
BRANCH  34  35
HETATM   35  C35 UNK     0      -5.750   5.962  -4.739  1.00  0.00     0.138 C 
BRANCH  35  36
HETATM   36  N23 UNK     0      -5.101   7.269  -4.364  1.00  0.00    -0.225 N 
HETATM   37  C8  UNK     0      -3.778   7.561  -4.766  1.00  0.00     0.686 C 
HETATM   38  N15 UNK     0      -3.096   6.686  -5.501  1.00  0.00    -0.118 NA
HETATM   39  N26 UNK     0      -3.181   8.786  -4.388  1.00  0.00    -0.234 N 
HETATM   40  H42 UNK     0      -2.095   6.908  -5.804  1.00  0.00     0.206 HD
HETATM   41  H55 UNK     0      -2.180   9.010  -4.694  1.00  0.00     0.174 HD
HETATM   42  H54 UNK     0      -3.731   9.488  -3.797  1.00  0.00     0.174 HD
HETATM   43  H51 UNK     0      -5.647   7.985  -3.786  1.00  0.00     0.177 HD
ENDBRANCH  35  36
ENDBRANCH  34  35
ENDBRANCH  33  34
ENDBRANCH  28  33
ENDBRANCH  25  28
ENDBRANCH  20  24
ENDBRANCH  14  17
ENDBRANCH   1  11
TORSDOF 11
ENDMDL
MODEL 3
REMARK VINA RESULT:    -6.953      7.080     11.700
REMARK INTER + INTRA:         -14.152
REMARK INTER:                 -12.770
REMARK INTRA:                  -1.382
REMARK UNBOUND:                -2.930
REMARK  11 active torsions:
REMARK  status: ('A' for Active; 'I' for Inactive)
REMARK    1  A    between atoms: S1_1  and  C9_9 
REMARK    2  A    between atoms: S1_1  and  N4_4 
REMARK       I    between atoms: N2_2  and  C3_3 
REMARK    3  A    between atoms: C3_3  and  C14_14 
REMARK    4  A    between atoms: C5_5  and  C6_6 
REMARK       I    between atoms: C5_5  and  N7_7 
REMARK    5  A    between atoms: N7_7  and  C13_13 
REMARK       I    between atoms: C8_8  and  N23_23 
REMARK       I    between atoms: C8_8  and  N26_26 
REMARK    6  A    between atoms: C10_10  and  O28_28 
REMARK    7  A    between atoms: C10_10  and  C13_13 
REMARK    8  A    between atoms: C13_13  and  C34_34 
REMARK    9  A    between atoms: N23_23  and  C35_35 
REMARK   10  A    between atoms: C34_34  and  C37_37 
REMARK   11  A    between atoms: C35_35  and  C37_37 
ROOT
HETATM    1  S1  UNK     0     -13.482   0.246   0.840  1.00  0.00     0.243 S 
HETATM    2  O11 UNK     0     -14.121   1.025  -0.237  1.00  0.00    -0.206 OA
HETATM    3  O12 UNK     0     -12.035   0.133   0.574  1.00  0.00    -0.206 OA
ENDROOT
BRANCH   1   4
HETATM    4  C9  UNK     0     -14.197  -1.399   0.856  1.00  0.00     0.074 A 
HETATM    5  C24 UNK     0     -13.974  -2.284  -0.231  1.00  0.00     0.025 A 
HETATM    6  C29 UNK     0     -14.559  -3.578  -0.226  1.00  0.00     0.008 A 
HETATM    7  C31 UNK     0     -15.369  -3.989   0.864  1.00  0.00    -0.062 A 
HETATM    8  C30 UNK     0     -15.592  -3.104   1.954  1.00  0.00     0.008 A 
HETATM    9  C36 UNK     0     -16.010  -5.397   0.864  1.00  0.00     0.048 C 
HETATM   10  C25 UNK     0     -15.007  -1.811   1.948  1.00  0.00     0.025 A 
ENDBRANCH   1   4
BRANCH   1  11
HETATM   11  N4  UNK     0     -13.686   1.067   2.294  1.00  0.00    -0.206 NA
HETATM   12  C19 UNK     0     -12.782   0.254   3.195  1.00  0.00     0.108 C 
HETATM   13  C21 UNK     0     -11.506   1.063   3.630  1.00  0.00     0.029 C 
HETATM   14  C14 UNK     0     -12.029   2.364   4.328  1.00  0.00     0.080 C 
HETATM   15  C22 UNK     0     -12.744   3.276   3.255  1.00  0.00     0.029 C 
HETATM   16  C18 UNK     0     -13.148   2.448   1.968  1.00  0.00     0.108 C 
BRANCH  14  17
HETATM   17  C3  UNK     0     -10.889   3.172   5.048  1.00  0.00     0.224 C 
HETATM   18  N2  UNK     0     -11.041   3.702   6.362  1.00  0.00    -0.338 N 
HETATM   19  C27 UNK     0     -12.205   3.421   7.291  1.00  0.00     0.127 C 
HETATM   20  C6  UNK     0     -10.624   5.119   6.693  1.00  0.00     0.179 C 
HETATM   21  C33 UNK     0     -12.543   4.753   8.048  1.00  0.00     0.022 C 
HETATM   22  C32 UNK     0     -11.165   5.464   8.107  1.00  0.00     0.037 C 
HETATM   23  O16 UNK     0      -9.843   3.411   4.428  1.00  0.00    -0.273 OA
BRANCH  20  24
HETATM   24  C5  UNK     0      -9.080   5.282   6.687  1.00  0.00     0.241 C 
HETATM   25  N7  UNK     0      -8.502   5.785   5.495  1.00  0.00    -0.345 N 
HETATM   26  H40 UNK     0      -9.186   6.238   4.809  1.00  0.00     0.163 HD
HETATM   27  O17 UNK     0      -8.382   4.944   7.654  1.00  0.00    -0.271 OA
BRANCH  25  28
HETATM   28  C13 UNK     0      -7.058   5.772   5.056  1.00  0.00     0.182 C 
BRANCH  28  29
HETATM   29  C10 UNK     0      -6.997   5.687   3.513  1.00  0.00     0.163 C 
HETATM   30  O20 UNK     0      -6.144   6.335   2.890  1.00  0.00    -0.648 OA
BRANCH  29  31
HETATM   31  O28 UNK     0      -7.889   4.870   2.823  1.00  0.00    -0.775 OA
HETATM   32  H58 UNK     0      -8.748   5.420   2.575  1.00  0.00     0.167 HD
ENDBRANCH  29  31
ENDBRANCH  28  29
BRANCH  28  33
HETATM   33  C34 UNK     0      -6.330   7.078   5.534  1.00  0.00     0.038 C 
BRANCH  33  34
HETATM   34  C37 UNK     0      -5.208   6.629   6.544  1.00  0.00     0.023 C 
BRANCH  34  35
HETATM   35  C35 UNK     0      -3.890   7.454   6.372  1.00  0.00     0.138 C 
BRANCH  35  36
HETATM   36  N23 UNK     0      -2.796   6.738   7.121  1.00  0.00    -0.225 N 
HETATM   37  C8  UNK     0      -1.723   6.133   6.430  1.00  0.00     0.686 C 
HETATM   38  N15 UNK     0      -1.657   6.208   5.103  1.00  0.00    -0.118 NA
HETATM   39  N26 UNK     0      -0.716   5.451   7.152  1.00  0.00    -0.234 N 
HETATM   40  H42 UNK     0      -0.844   5.749   4.581  1.00  0.00     0.206 HD
HETATM   41  H55 UNK     0       0.100   4.994   6.631  1.00  0.00     0.174 HD
HETATM   42  H54 UNK     0      -0.770   5.392   8.219  1.00  0.00     0.174 HD
HETATM   43  H51 UNK     0      -2.833   6.686   8.189  1.00  0.00     0.177 HD
ENDBRANCH  35  36
ENDBRANCH  34  35
ENDBRANCH  33  34
ENDBRANCH  28  33
ENDBRANCH  25  28
ENDBRANCH  20  24
ENDBRANCH  14  17
ENDBRANCH   1  11
TORSDOF 11
ENDMDL
MODEL 4
REMARK VINA RESULT:    -6.892      3.028      4.377
REMARK INTER + INTRA:         -14.052
REMARK INTER:                 -11.277
REMARK INTRA:                  -2.775
REMARK UNBOUND:                -2.930
REMARK  11 active torsions:
REMARK  status: ('A' for Active; 'I' for Inactive)
REMARK    1  A    between atoms: S1_1  and  C9_9 
REMARK    2  A    between atoms: S1_1  and  N4_4 
REMARK       I    between atoms: N2_2  and  C3_3 
REMARK    3  A    between atoms: C3_3  and  C14_14 
REMARK    4  A    between atoms: C5_5  and  C6_6 
REMARK       I    between atoms: C5_5  and  N7_7 
REMARK    5  A    between atoms: N7_7  and  C13_13 
REMARK       I    between atoms: C8_8  and  N23_23 
REMARK       I    between atoms: C8_8  and  N26_26 
REMARK    6  A    between atoms: C10_10  and  O28_28 
REMARK    7  A    between atoms: C10_10  and  C13_13 
REMARK    8  A    between atoms: C13_13  and  C34_34 
REMARK    9  A    between atoms: N23_23  and  C35_35 
REMARK   10  A    between atoms: C34_34  and  C37_37 
REMARK   11  A    between atoms: C35_35  and  C37_37 
ROOT
HETATM    1  S1  UNK     0      -1.837   9.352   3.662  1.00  0.00     0.243 S 
HETATM    2  O11 UNK     0      -0.939  10.169   4.501  1.00  0.00    -0.206 OA
HETATM    3  O12 UNK     0      -2.847  10.222   3.031  1.00  0.00    -0.206 OA
ENDROOT
BRANCH   1   4
HETATM    4  C9  UNK     0      -2.672   8.162   4.712  1.00  0.00     0.074 A 
HETATM    5  C24 UNK     0      -2.073   7.738   5.927  1.00  0.00     0.025 A 
HETATM    6  C29 UNK     0      -2.726   6.779   6.746  1.00  0.00     0.008 A 
HETATM    7  C31 UNK     0      -3.978   6.241   6.351  1.00  0.00    -0.062 A 
HETATM    8  C30 UNK     0      -4.581   6.666   5.135  1.00  0.00     0.008 A 
HETATM    9  C36 UNK     0      -4.685   5.192   7.243  1.00  0.00     0.048 C 
HETATM   10  C25 UNK     0      -3.927   7.624   4.318  1.00  0.00     0.025 A 
ENDBRANCH   1   4
BRANCH   1  11
HETATM   11  N4  UNK     0      -0.929   8.633   2.443  1.00  0.00    -0.206 NA
HETATM   12  C19 UNK     0      -0.690   7.268   3.051  1.00  0.00     0.108 C 
HETATM   13  C21 UNK     0      -1.472   6.139   2.285  1.00  0.00     0.029 C 
HETATM   14  C14 UNK     0      -1.001   6.217   0.792  1.00  0.00     0.080 C 
HETATM   15  C22 UNK     0      -1.513   7.570   0.159  1.00  0.00     0.029 C 
HETATM   16  C18 UNK     0      -1.897   8.625   1.276  1.00  0.00     0.108 C 
BRANCH  14  17
HETATM   17  C3  UNK     0      -1.496   4.999  -0.068  1.00  0.00     0.224 C 
HETATM   18  N2  UNK     0      -0.620   3.961  -0.499  1.00  0.00    -0.338 N 
HETATM   19  C27 UNK     0       0.820   3.791  -0.056  1.00  0.00     0.127 C 
HETATM   20  C6  UNK     0      -0.641   3.451  -1.924  1.00  0.00     0.179 C 
HETATM   21  C33 UNK     0       1.650   3.320  -1.301  1.00  0.00     0.022 C 
HETATM   22  C32 UNK     0       0.597   2.536  -2.129  1.00  0.00     0.037 C 
HETATM   23  O16 UNK     0      -2.679   4.969  -0.439  1.00  0.00    -0.273 OA
BRANCH  20  24
HETATM   24  C5  UNK     0      -1.929   2.639  -2.225  1.00  0.00     0.241 C 
HETATM   25  N7  UNK     0      -2.978   3.334  -2.876  1.00  0.00    -0.345 N 
HETATM   26  H40 UNK     0      -2.703   4.267  -3.322  1.00  0.00     0.163 HD
HETATM   27  O17 UNK     0      -2.056   1.457  -1.873  1.00  0.00    -0.271 OA
BRANCH  25  28
HETATM   28  C13 UNK     0      -4.428   2.945  -3.030  1.00  0.00     0.182 C 
BRANCH  28  29
HETATM   29  C10 UNK     0      -5.081   2.853  -1.631  1.00  0.00     0.163 C 
HETATM   30  O20 UNK     0      -5.978   3.647  -1.312  1.00  0.00    -0.648 OA
BRANCH  29  31
HETATM   31  O28 UNK     0      -4.673   1.868  -0.735  1.00  0.00    -0.775 OA
HETATM   32  H58 UNK     0      -5.362   1.806   0.055  1.00  0.00     0.167 HD
ENDBRANCH  29  31
ENDBRANCH  28  29
BRANCH  28  33
HETATM   33  C34 UNK     0      -5.191   4.014  -3.891  1.00  0.00     0.038 C 
BRANCH  33  34
HETATM   34  C37 UNK     0      -4.320   5.325  -3.864  1.00  0.00     0.023 C 
BRANCH  34  35
HETATM   35  C35 UNK     0      -5.067   6.521  -3.186  1.00  0.00     0.138 C 
BRANCH  35  36
HETATM   36  N23 UNK     0      -4.632   6.579  -1.744  1.00  0.00    -0.225 N 
HETATM   37  C8  UNK     0      -5.584   6.673  -0.705  1.00  0.00     0.686 C 
HETATM   38  N15 UNK     0      -6.884   6.692  -0.991  1.00  0.00    -0.118 NA
HETATM   39  N26 UNK     0      -5.154   6.744   0.640  1.00  0.00    -0.234 N 
HETATM   40  H42 UNK     0      -7.604   6.764  -0.203  1.00  0.00     0.206 HD
HETATM   41  H55 UNK     0      -5.874   6.813   1.429  1.00  0.00     0.174 HD
HETATM   42  H54 UNK     0      -4.109   6.728   0.869  1.00  0.00     0.174 HD
HETATM   43  H51 UNK     0      -3.590   6.548  -1.504  1.00  0.00     0.177 HD
ENDBRANCH  35  36
ENDBRANCH  34  35
ENDBRANCH  33  34
ENDBRANCH  28  33
ENDBRANCH  25  28
ENDBRANCH  20  24
ENDBRANCH  14  17
ENDBRANCH   1  11
TORSDOF 11
ENDMDL
MODEL 5
REMARK VINA RESULT:    -6.823      6.414     12.690
REMARK INTER + INTRA:         -13.941
REMARK INTER:                 -11.738
REMARK INTRA:                  -2.203
REMARK UNBOUND:                -2.930
REMARK  11 active torsions:
REMARK  status: ('A' for Active; 'I' for Inactive)
REMARK    1  A    between atoms: S1_1  and  C9_9 
REMARK    2  A    between atoms: S1_1  and  N4_4 
REMARK       I    between atoms: N2_2  and  C3_3 
REMARK    3  A    between atoms: C3_3  and  C14_14 
REMARK    4  A    between atoms: C5_5  and  C6_6 
REMARK       I    between atoms: C5_5  and  N7_7 
REMARK    5  A    between atoms: N7_7  and  C13_13 
REMARK       I    between atoms: C8_8  and  N23_23 
REMARK       I    between atoms: C8_8  and  N26_26 
REMARK    6  A    between atoms: C10_10  and  O28_28 
REMARK    7  A    between atoms: C10_10  and  C13_13 
REMARK    8  A    between atoms: C13_13  and  C34_34 
REMARK    9  A    between atoms: N23_23  and  C35_35 
REMARK   10  A    between atoms: C34_34  and  C37_37 
REMARK   11  A    between atoms: C35_35  and  C37_37 
ROOT
HETATM    1  S1  UNK     0       2.349   1.062  -8.727  1.00  0.00     0.243 S 
HETATM    2  O11 UNK     0       3.168   1.139  -7.502  1.00  0.00    -0.206 OA
HETATM    3  O12 UNK     0       1.407  -0.068  -8.619  1.00  0.00    -0.206 OA
ENDROOT
BRANCH   1   4
HETATM    4  C9  UNK     0       3.438   0.776 -10.124  1.00  0.00     0.074 A 
HETATM    5  C24 UNK     0       4.821   1.085 -10.025  1.00  0.00     0.025 A 
HETATM    6  C29 UNK     0       5.677   0.878 -11.139  1.00  0.00     0.008 A 
HETATM    7  C31 UNK     0       5.152   0.364 -12.353  1.00  0.00    -0.062 A 
HETATM    8  C30 UNK     0       3.769   0.053 -12.453  1.00  0.00     0.008 A 
HETATM    9  C36 UNK     0       6.087   0.146 -13.568  1.00  0.00     0.048 C 
HETATM   10  C25 UNK     0       2.915   0.260 -11.339  1.00  0.00     0.025 A 
ENDBRANCH   1   4
BRANCH   1  11
HETATM   11  N4  UNK     0       1.456   2.480  -8.868  1.00  0.00    -0.206 NA
HETATM   12  C19 UNK     0       0.054   1.913  -8.926  1.00  0.00     0.108 C 
HETATM   13  C21 UNK     0      -0.771   2.253  -7.630  1.00  0.00     0.029 C 
HETATM   14  C14 UNK     0      -0.764   3.815  -7.505  1.00  0.00     0.080 C 
HETATM   15  C22 UNK     0       0.705   4.303  -7.193  1.00  0.00     0.029 C 
HETATM   16  C18 UNK     0       1.775   3.198  -7.571  1.00  0.00     0.108 C 
BRANCH  14  17
HETATM   17  C3  UNK     0      -1.752   4.343  -6.402  1.00  0.00     0.224 C 
HETATM   18  N2  UNK     0      -3.099   4.703  -6.693  1.00  0.00    -0.338 N 
HETATM   19  C27 UNK     0      -3.804   4.468  -8.014  1.00  0.00     0.127 C 
HETATM   20  C6  UNK     0      -3.704   5.986  -6.164  1.00  0.00     0.179 C 
HETATM   21  C33 UNK     0      -4.707   5.717  -8.303  1.00  0.00     0.022 C 
HETATM   22  C32 UNK     0      -5.067   6.207  -6.875  1.00  0.00     0.037 C 
HETATM   23  O16 UNK     0      -1.327   4.511  -5.250  1.00  0.00    -0.273 OA
BRANCH  20  24
HETATM   24  C5  UNK     0      -3.936   5.923  -4.630  1.00  0.00     0.241 C 
HETATM   25  N7  UNK     0      -4.098   4.634  -4.066  1.00  0.00    -0.345 N 
HETATM   26  H40 UNK     0      -3.800   3.819  -4.692  1.00  0.00     0.163 HD
HETATM   27  O17 UNK     0      -4.024   6.949  -3.939  1.00  0.00    -0.271 OA
BRANCH  25  28
HETATM   28  C13 UNK     0      -4.631   4.246  -2.709  1.00  0.00     0.182 C 
BRANCH  28  29
HETATM   29  C10 UNK     0      -5.854   3.317  -2.890  1.00  0.00     0.163 C 
HETATM   30  O20 UNK     0      -6.059   2.398  -2.083  1.00  0.00    -0.648 OA
BRANCH  29  31
HETATM   31  O28 UNK     0      -6.735   3.522  -3.949  1.00  0.00    -0.775 OA
HETATM   32  H58 UNK     0      -7.314   2.658  -4.096  1.00  0.00     0.167 HD
ENDBRANCH  29  31
ENDBRANCH  28  29
BRANCH  28  33
HETATM   33  C34 UNK     0      -3.526   3.497  -1.882  1.00  0.00     0.038 C 
BRANCH  33  34
HETATM   34  C37 UNK     0      -2.671   2.669  -2.913  1.00  0.00     0.023 C 
BRANCH  34  35
HETATM   35  C35 UNK     0      -1.210   2.424  -2.411  1.00  0.00     0.138 C 
BRANCH  35  36
HETATM   36  N23 UNK     0      -0.334   2.220  -3.621  1.00  0.00    -0.225 N 
HETATM   37  C8  UNK     0       0.173   0.941  -3.938  1.00  0.00     0.686 C 
HETATM   38  N15 UNK     0      -0.135  -0.107  -3.178  1.00  0.00    -0.118 NA
HETATM   39  N26 UNK     0       1.007   0.775  -5.068  1.00  0.00    -0.234 N 
HETATM   40  H42 UNK     0       0.251  -1.075  -3.419  1.00  0.00     0.206 HD
HETATM   41  H55 UNK     0       1.391  -0.194  -5.312  1.00  0.00     0.174 HD
HETATM   42  H54 UNK     0       1.255   1.618  -5.679  1.00  0.00     0.174 HD
HETATM   43  H51 UNK     0      -0.094   3.054  -4.246  1.00  0.00     0.177 HD
ENDBRANCH  35  36
ENDBRANCH  34  35
ENDBRANCH  33  34
ENDBRANCH  28  33
ENDBRANCH  25  28
ENDBRANCH  20  24
ENDBRANCH  14  17
ENDBRANCH   1  11
TORSDOF 11
ENDMDL
MODEL 6
REMARK VINA RESULT:    -6.801      7.125     11.599
REMARK INTER + INTRA:         -13.906
REMARK INTER:                 -12.084
REMARK INTRA:                  -1.822
REMARK UNBOUND:                -2.930
REMARK  11 active torsions:
REMARK  status: ('A' for Active; 'I' for Inactive)
REMARK    1  A    between atoms: S1_1  and  C9_9 
REMARK    2  A    between atoms: S1_1  and  N4_4 
REMARK       I    between atoms: N2_2  and  C3_3 
REMARK    3  A    between atoms: C3_3  and  C14_14 
REMARK    4  A    between atoms: C5_5  and  C6_6 
REMARK       I    between atoms: C5_5  and  N7_7 
REMARK    5  A    between atoms: N7_7  and  C13_13 
REMARK       I    between atoms: C8_8  and  N23_23 
REMARK       I    between atoms: C8_8  and  N26_26 
REMARK    6  A    between atoms: C10_10  and  O28_28 
REMARK    7  A    between atoms: C10_10  and  C13_13 
REMARK    8  A    between atoms: C13_13  and  C34_34 
REMARK    9  A    between atoms: N23_23  and  C35_35 
REMARK   10  A    between atoms: C34_34  and  C37_37 
REMARK   11  A    between atoms: C35_35  and  C37_37 
ROOT
HETATM    1  S1  UNK     0     -13.469  -0.098   1.251  1.00  0.00     0.243 S 
HETATM    2  O11 UNK     0     -12.455   0.481   0.350  1.00  0.00    -0.206 OA
HETATM    3  O12 UNK     0     -13.019  -1.426   1.710  1.00  0.00    -0.206 OA
ENDROOT
BRANCH   1   4
HETATM    4  C9  UNK     0     -15.001  -0.290   0.339  1.00  0.00     0.074 A 
HETATM    5  C24 UNK     0     -16.207   0.261   0.847  1.00  0.00     0.025 A 
HETATM    6  C29 UNK     0     -17.423   0.089   0.134  1.00  0.00     0.008 A 
HETATM    7  C31 UNK     0     -17.436  -0.633  -1.087  1.00  0.00    -0.062 A 
HETATM    8  C30 UNK     0     -16.229  -1.183  -1.598  1.00  0.00     0.008 A 
HETATM    9  C36 UNK     0     -18.764  -0.824  -1.859  1.00  0.00     0.048 C 
HETATM   10  C25 UNK     0     -15.015  -1.011  -0.884  1.00  0.00     0.025 A 
ENDBRANCH   1   4
BRANCH   1  11
HETATM   11  N4  UNK     0     -13.624   0.897   2.598  1.00  0.00    -0.206 NA
HETATM   12  C19 UNK     0     -12.749   0.157   3.586  1.00  0.00     0.108 C 
HETATM   13  C21 UNK     0     -11.434   0.954   3.917  1.00  0.00     0.029 C 
HETATM   14  C14 UNK     0     -11.894   2.351   4.459  1.00  0.00     0.080 C 
HETATM   15  C22 UNK     0     -12.578   3.160   3.288  1.00  0.00     0.029 C 
HETATM   16  C18 UNK     0     -13.029   2.204   2.109  1.00  0.00     0.108 C 
BRANCH  14  17
HETATM   17  C3  UNK     0     -10.714   3.187   5.073  1.00  0.00     0.224 C 
HETATM   18  N2  UNK     0     -10.821   3.850   6.330  1.00  0.00    -0.338 N 
HETATM   19  C27 UNK     0     -11.974   3.704   7.302  1.00  0.00     0.127 C 
HETATM   20  C6  UNK     0     -10.352   5.278   6.510  1.00  0.00     0.179 C 
HETATM   21  C33 UNK     0     -12.253   5.116   7.927  1.00  0.00     0.022 C 
HETATM   22  C32 UNK     0     -10.851   5.781   7.891  1.00  0.00     0.037 C 
HETATM   23  O16 UNK     0      -9.673   3.326   4.414  1.00  0.00    -0.273 OA
BRANCH  20  24
HETATM   24  C5  UNK     0      -8.804   5.386   6.460  1.00  0.00     0.241 C 
HETATM   25  N7  UNK     0      -8.230   5.689   5.200  1.00  0.00    -0.345 N 
HETATM   26  H40 UNK     0      -8.912   6.059   4.463  1.00  0.00     0.163 HD
HETATM   27  O17 UNK     0      -8.100   5.170   7.457  1.00  0.00    -0.271 OA
BRANCH  25  28
HETATM   28  C13 UNK     0      -6.796   5.563   4.751  1.00  0.00     0.182 C 
BRANCH  28  29
HETATM   29  C10 UNK     0      -6.765   5.111   3.271  1.00  0.00     0.163 C 
HETATM   30  O20 UNK     0      -5.681   4.989   2.683  1.00  0.00    -0.648 OA
BRANCH  29  31
HETATM   31  O28 UNK     0      -7.954   4.826   2.604  1.00  0.00    -0.775 OA
HETATM   32  H58 UNK     0      -8.116   3.789   2.605  1.00  0.00     0.167 HD
ENDBRANCH  29  31
ENDBRANCH  28  29
BRANCH  28  33
HETATM   33  C34 UNK     0      -6.057   6.942   4.888  1.00  0.00     0.038 C 
BRANCH  33  34
HETATM   34  C37 UNK     0      -5.274   6.903   6.254  1.00  0.00     0.023 C 
BRANCH  34  35
HETATM   35  C35 UNK     0      -3.783   6.469   6.072  1.00  0.00     0.138 C 
BRANCH  35  36
HETATM   36  N23 UNK     0      -3.223   6.156   7.436  1.00  0.00    -0.225 N 
HETATM   37  C8  UNK     0      -3.167   4.826   7.906  1.00  0.00     0.686 C 
HETATM   38  N15 UNK     0      -3.593   3.827   7.136  1.00  0.00    -0.118 NA
HETATM   39  N26 UNK     0      -2.654   4.556   9.196  1.00  0.00    -0.234 N 
HETATM   40  H42 UNK     0      -3.550   2.820   7.494  1.00  0.00     0.206 HD
HETATM   41  H55 UNK     0      -2.608   3.548   9.553  1.00  0.00     0.174 HD
HETATM   42  H54 UNK     0      -2.312   5.359   9.814  1.00  0.00     0.174 HD
HETATM   43  H51 UNK     0      -2.864   6.951   8.055  1.00  0.00     0.177 HD
ENDBRANCH  35  36
ENDBRANCH  34  35
ENDBRANCH  33  34
ENDBRANCH  28  33
ENDBRANCH  25  28
ENDBRANCH  20  24
ENDBRANCH  14  17
ENDBRANCH   1  11
TORSDOF 11
ENDMDL
MODEL 7
REMARK VINA RESULT:    -6.729      2.865      4.530
REMARK INTER + INTRA:         -13.790
REMARK INTER:                 -12.108
REMARK INTRA:                  -1.681
REMARK UNBOUND:                -2.930
REMARK  11 active torsions:
REMARK  status: ('A' for Active; 'I' for Inactive)
REMARK    1  A    between atoms: S1_1  and  C9_9 
REMARK    2  A    between atoms: S1_1  and  N4_4 
REMARK       I    between atoms: N2_2  and  C3_3 
REMARK    3  A    between atoms: C3_3  and  C14_14 
REMARK    4  A    between atoms: C5_5  and  C6_6 
REMARK       I    between atoms: C5_5  and  N7_7 
REMARK    5  A    between atoms: N7_7  and  C13_13 
REMARK       I    between atoms: C8_8  and  N23_23 
REMARK       I    between atoms: C8_8  and  N26_26 
REMARK    6  A    between atoms: C10_10  and  O28_28 
REMARK    7  A    between atoms: C10_10  and  C13_13 
REMARK    8  A    between atoms: C13_13  and  C34_34 
REMARK    9  A    between atoms: N23_23  and  C35_35 
REMARK   10  A    between atoms: C34_34  and  C37_37 
REMARK   11  A    between atoms: C35_35  and  C37_37 
ROOT
HETATM    1  S1  UNK     0      -1.826   9.626   3.805  1.00  0.00     0.243 S 
HETATM    2  O11 UNK     0      -0.882  10.042   4.858  1.00  0.00    -0.206 OA
HETATM    3  O12 UNK     0      -2.461  10.818   3.212  1.00  0.00    -0.206 OA
ENDROOT
BRANCH   1   4
HETATM    4  C9  UNK     0      -3.098   8.604   4.550  1.00  0.00     0.074 A 
HETATM    5  C24 UNK     0      -4.328   8.389   3.874  1.00  0.00     0.025 A 
HETATM    6  C29 UNK     0      -5.342   7.598   4.475  1.00  0.00     0.008 A 
HETATM    7  C31 UNK     0      -5.129   7.021   5.754  1.00  0.00    -0.062 A 
HETATM    8  C30 UNK     0      -3.898   7.233   6.432  1.00  0.00     0.008 A 
HETATM    9  C36 UNK     0      -6.238   6.163   6.410  1.00  0.00     0.048 C 
HETATM   10  C25 UNK     0      -2.886   8.025   5.829  1.00  0.00     0.025 A 
ENDBRANCH   1   4
BRANCH   1  11
HETATM   11  N4  UNK     0      -0.969   8.832   2.595  1.00  0.00    -0.206 NA
HETATM   12  C19 UNK     0      -0.869   7.447   3.196  1.00  0.00     0.108 C 
HETATM   13  C21 UNK     0      -1.740   6.401   2.408  1.00  0.00     0.029 C 
HETATM   14  C14 UNK     0      -1.239   6.444   0.924  1.00  0.00     0.080 C 
HETATM   15  C22 UNK     0      -1.611   7.843   0.293  1.00  0.00     0.029 C 
HETATM   16  C18 UNK     0      -1.913   8.922   1.412  1.00  0.00     0.108 C 
BRANCH  14  17
HETATM   17  C3  UNK     0      -1.830   5.283   0.046  1.00  0.00     0.224 C 
HETATM   18  N2  UNK     0      -1.041   4.184  -0.400  1.00  0.00    -0.338 N 
HETATM   19  C27 UNK     0       0.380   3.890   0.040  1.00  0.00     0.127 C 
HETATM   20  C6  UNK     0      -1.102   3.698  -1.832  1.00  0.00     0.179 C 
HETATM   21  C33 UNK     0       1.169   3.371  -1.212  1.00  0.00     0.022 C 
HETATM   22  C32 UNK     0       0.057   2.688  -2.051  1.00  0.00     0.037 C 
HETATM   23  O16 UNK     0      -3.011   5.355  -0.325  1.00  0.00    -0.273 OA
BRANCH  20  24
HETATM   24  C5  UNK     0      -2.452   2.998  -2.145  1.00  0.00     0.241 C 
HETATM   25  N7  UNK     0      -3.424   3.772  -2.827  1.00  0.00    -0.345 N 
HETATM   26  H40 UNK     0      -3.059   4.669  -3.282  1.00  0.00     0.163 HD
HETATM   27  O17 UNK     0      -2.689   1.838  -1.776  1.00  0.00    -0.271 OA
BRANCH  25  28
HETATM   28  C13 UNK     0      -4.899   3.510  -3.002  1.00  0.00     0.182 C 
BRANCH  28  29
HETATM   29  C10 UNK     0      -5.505   3.083  -1.644  1.00  0.00     0.163 C 
HETATM   30  O20 UNK     0      -6.104   2.003  -1.545  1.00  0.00    -0.648 OA
BRANCH  29  31
HETATM   31  O28 UNK     0      -5.363   3.904  -0.528  1.00  0.00    -0.775 OA
HETATM   32  H58 UNK     0      -4.687   3.466   0.146  1.00  0.00     0.167 HD
ENDBRANCH  29  31
ENDBRANCH  28  29
BRANCH  28  33
HETATM   33  C34 UNK     0      -5.627   4.805  -3.511  1.00  0.00     0.038 C 
BRANCH  33  34
HETATM   34  C37 UNK     0      -6.282   4.442  -4.897  1.00  0.00     0.023 C 
BRANCH  34  35
HETATM   35  C35 UNK     0      -5.674   5.271  -6.076  1.00  0.00     0.138 C 
BRANCH  35  36
HETATM   36  N23 UNK     0      -4.197   4.981  -6.131  1.00  0.00    -0.225 N 
HETATM   37  C8  UNK     0      -3.279   5.977  -6.529  1.00  0.00     0.686 C 
HETATM   38  N15 UNK     0      -3.711   7.196  -6.842  1.00  0.00    -0.118 NA
HETATM   39  N26 UNK     0      -1.898   5.679  -6.590  1.00  0.00    -0.234 N 
HETATM   40  H42 UNK     0      -3.014   7.950  -7.143  1.00  0.00     0.206 HD
HETATM   41  H55 UNK     0      -1.200   6.433  -6.888  1.00  0.00     0.174 HD
HETATM   42  H54 UNK     0      -1.551   4.698  -6.338  1.00  0.00     0.174 HD
HETATM   43  H51 UNK     0      -3.839   4.008  -5.866  1.00  0.00     0.177 HD
ENDBRANCH  35  36
ENDBRANCH  34  35
ENDBRANCH  33  34
ENDBRANCH  28  33
ENDBRANCH  25  28
ENDBRANCH  20  24
ENDBRANCH  14  17
ENDBRANCH   1  11
TORSDOF 11
ENDMDL
MODEL 8
REMARK VINA RESULT:    -6.708      2.051      3.232
REMARK INTER + INTRA:         -13.756
REMARK INTER:                 -11.523
REMARK INTRA:                  -2.233
REMARK UNBOUND:                -2.930
REMARK  11 active torsions:
REMARK  status: ('A' for Active; 'I' for Inactive)
REMARK    1  A    between atoms: S1_1  and  C9_9 
REMARK    2  A    between atoms: S1_1  and  N4_4 
REMARK       I    between atoms: N2_2  and  C3_3 
REMARK    3  A    between atoms: C3_3  and  C14_14 
REMARK    4  A    between atoms: C5_5  and  C6_6 
REMARK       I    between atoms: C5_5  and  N7_7 
REMARK    5  A    between atoms: N7_7  and  C13_13 
REMARK       I    between atoms: C8_8  and  N23_23 
REMARK       I    between atoms: C8_8  and  N26_26 
REMARK    6  A    between atoms: C10_10  and  O28_28 
REMARK    7  A    between atoms: C10_10  and  C13_13 
REMARK    8  A    between atoms: C13_13  and  C34_34 
REMARK    9  A    between atoms: N23_23  and  C35_35 
REMARK   10  A    between atoms: C34_34  and  C37_37 
REMARK   11  A    between atoms: C35_35  and  C37_37 
ROOT
HETATM    1  S1  UNK     0      -5.674   5.435   4.311  1.00  0.00     0.243 S 
HETATM    2  O11 UNK     0      -6.622   4.734   3.425  1.00  0.00    -0.206 OA
HETATM    3  O12 UNK     0      -4.722   4.462   4.881  1.00  0.00    -0.206 OA
ENDROOT
BRANCH   1   4
HETATM    4  C9  UNK     0      -6.597   6.193   5.649  1.00  0.00     0.074 A 
HETATM    5  C24 UNK     0      -7.960   5.852   5.858  1.00  0.00     0.025 A 
HETATM    6  C29 UNK     0      -8.695   6.470   6.904  1.00  0.00     0.008 A 
HETATM    7  C31 UNK     0      -8.070   7.430   7.742  1.00  0.00    -0.062 A 
HETATM    8  C30 UNK     0      -6.705   7.771   7.535  1.00  0.00     0.008 A 
HETATM    9  C36 UNK     0      -8.875   8.106   8.878  1.00  0.00     0.048 C 
HETATM   10  C25 UNK     0      -5.972   7.153   6.489  1.00  0.00     0.025 A 
ENDBRANCH   1   4
BRANCH   1  11
HETATM   11  N4  UNK     0      -4.804   6.547   3.397  1.00  0.00    -0.206 NA
HETATM   12  C19 UNK     0      -3.586   5.719   3.048  1.00  0.00     0.108 C 
HETATM   13  C21 UNK     0      -3.541   5.358   1.518  1.00  0.00     0.029 C 
HETATM   14  C14 UNK     0      -3.576   6.722   0.746  1.00  0.00     0.080 C 
HETATM   15  C22 UNK     0      -4.984   7.404   0.963  1.00  0.00     0.029 C 
HETATM   16  C18 UNK     0      -5.730   6.803   2.224  1.00  0.00     0.108 C 
BRANCH  14  17
HETATM   17  C3  UNK     0      -3.287   6.561  -0.790  1.00  0.00     0.224 C 
HETATM   18  N2  UNK     0      -2.241   7.270  -1.449  1.00  0.00    -0.338 N 
HETATM   19  C27 UNK     0      -1.181   8.108  -0.761  1.00  0.00     0.127 C 
HETATM   20  C6  UNK     0      -2.471   7.964  -2.774  1.00  0.00     0.179 C 
HETATM   21  C33 UNK     0      -0.924   9.375  -1.648  1.00  0.00     0.022 C 
HETATM   22  C32 UNK     0      -1.234   8.853  -3.076  1.00  0.00     0.037 C 
HETATM   23  O16 UNK     0      -4.034   5.840  -1.467  1.00  0.00    -0.273 OA
BRANCH  20  24
HETATM   24  C5  UNK     0      -2.660   6.947  -3.931  1.00  0.00     0.241 C 
HETATM   25  N7  UNK     0      -3.988   6.733  -4.376  1.00  0.00    -0.345 N 
HETATM   26  H40 UNK     0      -4.702   7.463  -4.055  1.00  0.00     0.163 HD
HETATM   27  O17 UNK     0      -1.707   6.315  -4.411  1.00  0.00    -0.271 OA
BRANCH  25  28
HETATM   28  C13 UNK     0      -4.539   5.623  -5.237  1.00  0.00     0.182 C 
BRANCH  28  29
HETATM   29  C10 UNK     0      -5.628   4.859  -4.445  1.00  0.00     0.163 C 
HETATM   30  O20 UNK     0      -6.114   3.817  -4.909  1.00  0.00    -0.648 OA
BRANCH  29  31
HETATM   31  O28 UNK     0      -6.049   5.332  -3.205  1.00  0.00    -0.775 OA
HETATM   32  H58 UNK     0      -5.219   5.672  -2.659  1.00  0.00     0.167 HD
ENDBRANCH  29  31
ENDBRANCH  28  29
BRANCH  28  33
HETATM   33  C34 UNK     0      -5.168   6.210  -6.550  1.00  0.00     0.038 C 
BRANCH  33  34
HETATM   34  C37 UNK     0      -3.967   6.628  -7.481  1.00  0.00     0.023 C 
BRANCH  34  35
HETATM   35  C35 UNK     0      -3.072   5.408  -7.877  1.00  0.00     0.138 C 
BRANCH  35  36
HETATM   36  N23 UNK     0      -1.746   5.562  -7.178  1.00  0.00    -0.225 N 
HETATM   37  C8  UNK     0      -0.812   4.503  -7.159  1.00  0.00     0.686 C 
HETATM   38  N15 UNK     0      -1.088   3.358  -7.779  1.00  0.00    -0.118 NA
HETATM   39  N26 UNK     0       0.420   4.662  -6.482  1.00  0.00    -0.234 N 
HETATM   40  H42 UNK     0      -0.379   2.557  -7.763  1.00  0.00     0.206 HD
HETATM   41  H55 UNK     0       1.130   3.862  -6.468  1.00  0.00     0.174 HD
HETATM   42  H54 UNK     0       0.641   5.583  -5.984  1.00  0.00     0.174 HD
HETATM   43  H51 UNK     0      -1.509   6.484  -6.690  1.00  0.00     0.177 HD
ENDBRANCH  35  36
ENDBRANCH  34  35
ENDBRANCH  33  34
ENDBRANCH  28  33
ENDBRANCH  25  28
ENDBRANCH  20  24
ENDBRANCH  14  17
ENDBRANCH   1  11
TORSDOF 11
ENDMDL
MODEL 9
REMARK VINA RESULT:    -6.705      4.920      9.435
REMARK INTER + INTRA:         -13.751
REMARK INTER:                 -12.223
REMARK INTRA:                  -1.528
REMARK UNBOUND:                -2.930
REMARK  11 active torsions:
REMARK  status: ('A' for Active; 'I' for Inactive)
REMARK    1  A    between atoms: S1_1  and  C9_9 
REMARK    2  A    between atoms: S1_1  and  N4_4 
REMARK       I    between atoms: N2_2  and  C3_3 
REMARK    3  A    between atoms: C3_3  and  C14_14 
REMARK    4  A    between atoms: C5_5  and  C6_6 
REMARK       I    between atoms: C5_5  and  N7_7 
REMARK    5  A    between atoms: N7_7  and  C13_13 
REMARK       I    between atoms: C8_8  and  N23_23 
REMARK       I    between atoms: C8_8  and  N26_26 
REMARK    6  A    between atoms: C10_10  and  O28_28 
REMARK    7  A    between atoms: C10_10  and  C13_13 
REMARK    8  A    between atoms: C13_13  and  C34_34 
REMARK    9  A    between atoms: N23_23  and  C35_35 
REMARK   10  A    between atoms: C34_34  and  C37_37 
REMARK   11  A    between atoms: C35_35  and  C37_37 
ROOT
HETATM    1  S1  UNK     0      -2.151  13.547   1.870  1.00  0.00     0.243 S 
HETATM    2  O11 UNK     0      -1.955  14.178   0.552  1.00  0.00    -0.206 OA
HETATM    3  O12 UNK     0      -2.356  14.592   2.891  1.00  0.00    -0.206 OA
ENDROOT
BRANCH   1   4
HETATM    4  C9  UNK     0      -0.674  12.617   2.282  1.00  0.00     0.074 A 
HETATM    5  C24 UNK     0      -0.399  12.276   3.633  1.00  0.00     0.025 A 
HETATM    6  C29 UNK     0       0.782  11.559   3.960  1.00  0.00     0.008 A 
HETATM    7  C31 UNK     0       1.691  11.182   2.938  1.00  0.00    -0.062 A 
HETATM    8  C30 UNK     0       1.417  11.520   1.585  1.00  0.00     0.008 A 
HETATM    9  C36 UNK     0       2.981  10.405   3.298  1.00  0.00     0.048 C 
HETATM   10  C25 UNK     0       0.236  12.237   1.260  1.00  0.00     0.025 A 
ENDBRANCH   1   4
BRANCH   1  11
HETATM   11  N4  UNK     0      -3.535  12.593   1.811  1.00  0.00    -0.206 NA
HETATM   12  C19 UNK     0      -3.095  11.536   0.821  1.00  0.00     0.108 C 
HETATM   13  C21 UNK     0      -2.905  10.133   1.505  1.00  0.00     0.029 C 
HETATM   14  C14 UNK     0      -4.278   9.785   2.177  1.00  0.00     0.080 C 
HETATM   15  C22 UNK     0      -4.540  10.789   3.368  1.00  0.00     0.029 C 
HETATM   16  C18 UNK     0      -3.647  12.090   3.237  1.00  0.00     0.108 C 
BRANCH  14  17
HETATM   17  C3  UNK     0      -4.346   8.304   2.696  1.00  0.00     0.224 C 
HETATM   18  N2  UNK     0      -5.119   7.300   2.045  1.00  0.00    -0.338 N 
HETATM   19  C27 UNK     0      -5.816   7.461   0.708  1.00  0.00     0.127 C 
HETATM   20  C6  UNK     0      -6.013   6.361   2.827  1.00  0.00     0.179 C 
HETATM   21  C33 UNK     0      -7.197   6.723   0.797  1.00  0.00     0.022 C 
HETATM   22  C32 UNK     0      -6.905   5.590   1.817  1.00  0.00     0.037 C 
HETATM   23  O16 UNK     0      -3.755   8.010   3.746  1.00  0.00    -0.273 OA
BRANCH  20  24
HETATM   24  C5  UNK     0      -5.189   5.342   3.658  1.00  0.00     0.241 C 
HETATM   25  N7  UNK     0      -5.201   5.514   5.064  1.00  0.00    -0.345 N 
HETATM   26  H40 UNK     0      -5.964   6.163   5.440  1.00  0.00     0.163 HD
HETATM   27  O17 UNK     0      -4.513   4.452   3.120  1.00  0.00    -0.271 OA
BRANCH  25  28
HETATM   28  C13 UNK     0      -4.291   4.913   6.107  1.00  0.00     0.182 C 
BRANCH  28  29
HETATM   29  C10 UNK     0      -3.229   5.961   6.519  1.00  0.00     0.163 C 
HETATM   30  O20 UNK     0      -2.181   6.070   5.868  1.00  0.00    -0.648 OA
BRANCH  29  31
HETATM   31  O28 UNK     0      -3.459   6.792   7.612  1.00  0.00    -0.775 OA
HETATM   32  H58 UNK     0      -3.970   6.259   8.358  1.00  0.00     0.167 HD
ENDBRANCH  29  31
ENDBRANCH  28  29
BRANCH  28  33
HETATM   33  C34 UNK     0      -5.117   4.485   7.371  1.00  0.00     0.038 C 
BRANCH  33  34
HETATM   34  C37 UNK     0      -4.382   3.237   7.992  1.00  0.00     0.023 C 
BRANCH  34  35
HETATM   35  C35 UNK     0      -3.546   3.610   9.260  1.00  0.00     0.138 C 
BRANCH  35  36
HETATM   36  N23 UNK     0      -2.170   4.018   8.803  1.00  0.00    -0.225 N 
HETATM   37  C8  UNK     0      -1.261   4.625   9.697  1.00  0.00     0.686 C 
HETATM   38  N15 UNK     0      -1.608   4.826  10.966  1.00  0.00    -0.118 NA
HETATM   39  N26 UNK     0       0.020   5.016   9.243  1.00  0.00    -0.234 N 
HETATM   40  H42 UNK     0      -0.918   5.286  11.643  1.00  0.00     0.206 HD
HETATM   41  H55 UNK     0       0.711   5.473   9.919  1.00  0.00     0.174 HD
HETATM   42  H54 UNK     0       0.297   4.854   8.222  1.00  0.00     0.174 HD
HETATM   43  H51 UNK     0      -1.877   3.846   7.788  1.00  0.00     0.177 HD
ENDBRANCH  35  36
ENDBRANCH  34  35
ENDBRANCH  33  34
ENDBRANCH  28  33
ENDBRANCH  25  28
ENDBRANCH  20  24
ENDBRANCH  14  17
ENDBRANCH   1  11
TORSDOF 11
ENDMDL
