MODEL 1
REMARK VINA RESULT:    -7.265      0.000      0.000
REMARK INTER + INTRA:          -8.324
REMARK INTER:                  -8.539
REMARK INTRA:                   0.215
REMARK UNBOUND:                 0.215
REMARK  3 active torsions:
REMARK  status: ('A' for Active; 'I' for Inactive)
REMARK    1  A    between atoms: S1_1  and  N6_6 
REMARK    2  A    between atoms: S1_1  and  C8_8 
REMARK    3  A    between atoms: N5_5  and  N7_7 
REMARK       I    between atoms: N6_6  and  C11_11 
REMARK       I    between atoms: N7_7  and  C11_11 
ROOT
HETATM    1  S1  UNK     0      -2.701 -11.397  -2.559  1.00  0.00     0.266 S 
HETATM    2  O2  UNK     0      -3.160 -12.572  -3.339  1.00  0.00    -0.200 OA
HETATM    3  O3  UNK     0      -1.905 -11.875  -1.402  1.00  0.00    -0.200 OA
ENDROOT
BRANCH   1   4
HETATM    4  N6  UNK     0      -1.726 -10.436  -3.548  1.00  0.00    -0.231 N 
HETATM    5  H23 UNK     0      -0.767 -10.068  -3.251  1.00  0.00     0.183 HD
HETATM    6  C11 UNK     0      -2.310 -10.168  -4.814  1.00  0.00     0.344 C 
HETATM    7  O4  UNK     0      -3.448 -10.611  -5.057  1.00  0.00    -0.245 OA
HETATM    8  N7  UNK     0      -1.642  -9.410  -5.814  1.00  0.00    -0.270 N 
HETATM    9  H24 UNK     0      -0.643  -9.048  -5.682  1.00  0.00     0.185 HD
BRANCH   8  10
HETATM   10  N5  UNK     0      -2.407  -9.156  -7.039  1.00  0.00    -0.227 NA
HETATM   11  C12 UNK     0      -1.863  -9.886  -8.267  1.00  0.00     0.118 C 
HETATM   12  C10 UNK     0      -2.550  -9.041  -9.372  1.00  0.00     0.006 C 
HETATM   13  C9  UNK     0      -2.171  -7.638  -8.891  1.00  0.00     0.006 C 
HETATM   14  C16 UNK     0      -2.013  -9.019 -10.834  1.00  0.00     0.006 C 
HETATM   15  C17 UNK     0      -2.915  -6.773  -9.962  1.00  0.00     0.006 C 
HETATM   16  C13 UNK     0      -2.632  -7.683  -7.388  1.00  0.00     0.118 C 
HETATM   17  C18 UNK     0      -2.558  -7.588 -11.298  1.00  0.00     0.001 C 
ENDBRANCH   8  10
ENDBRANCH   1   4
BRANCH   1  18
HETATM   18  C8  UNK     0      -4.137 -10.482  -1.973  1.00  0.00     0.080 A 
HETATM   19  C14 UNK     0      -3.977  -9.340  -1.130  1.00  0.00     0.026 A 
HETATM   20  C20 UNK     0      -5.124  -8.617  -0.687  1.00  0.00     0.008 A 
HETATM   21  C19 UNK     0      -6.430  -9.034  -1.088  1.00  0.00    -0.062 A 
HETATM   22  C21 UNK     0      -6.592 -10.178  -1.927  1.00  0.00     0.008 A 
HETATM   23  C22 UNK     0      -7.677  -8.239  -0.611  1.00  0.00     0.048 C 
HETATM   24  C15 UNK     0      -5.443 -10.899  -2.371  1.00  0.00     0.026 A 
ENDBRANCH   1  18
TORSDOF 3
ENDMDL
MODEL 2
REMARK VINA RESULT:    -7.027     18.769     21.010
REMARK INTER + INTRA:          -8.045
REMARK INTER:                  -8.331
REMARK INTRA:                   0.286
REMARK UNBOUND:                 0.215
REMARK  3 active torsions:
REMARK  status: ('A' for Active; 'I' for Inactive)
REMARK    1  A    between atoms: S1_1  and  N6_6 
REMARK    2  A    between atoms: S1_1  and  C8_8 
REMARK    3  A    between atoms: N5_5  and  N7_7 
REMARK       I    between atoms: N6_6  and  C11_11 
REMARK       I    between atoms: N7_7  and  C11_11 
ROOT
HETATM    1  S1  UNK     0      -0.154   5.290   9.634  1.00  0.00     0.266 S 
HETATM    2  O2  UNK     0      -1.131   4.874  10.671  1.00  0.00    -0.200 OA
HETATM    3  O3  UNK     0       0.324   4.081   8.919  1.00  0.00    -0.200 OA
ENDROOT
BRANCH   1   4
HETATM    4  N6  UNK     0      -0.929   6.316   8.540  1.00  0.00    -0.231 N 
HETATM    5  H23 UNK     0      -0.672   7.346   8.414  1.00  0.00     0.183 HD
HETATM    6  C11 UNK     0      -1.957   5.670   7.803  1.00  0.00     0.344 C 
HETATM    7  O4  UNK     0      -2.210   4.475   8.044  1.00  0.00    -0.245 OA
HETATM    8  N7  UNK     0      -2.711   6.341   6.802  1.00  0.00    -0.270 N 
HETATM    9  H24 UNK     0      -2.505   7.352   6.516  1.00  0.00     0.185 HD
BRANCH   8  10
HETATM   10  N5  UNK     0      -3.788   5.561   6.184  1.00  0.00    -0.227 NA
HETATM   11  C12 UNK     0      -3.739   5.546   4.657  1.00  0.00     0.118 C 
HETATM   12  C10 UNK     0      -5.197   5.099   4.375  1.00  0.00     0.006 C 
HETATM   13  C9  UNK     0      -5.945   6.097   5.263  1.00  0.00     0.006 C 
HETATM   14  C16 UNK     0      -5.875   5.351   2.994  1.00  0.00     0.006 C 
HETATM   15  C17 UNK     0      -7.415   5.613   5.038  1.00  0.00     0.006 C 
HETATM   16  C13 UNK     0      -5.206   5.911   6.639  1.00  0.00     0.118 C 
HETATM   17  C18 UNK     0      -7.409   5.378   3.450  1.00  0.00     0.001 C 
ENDBRANCH   8  10
ENDBRANCH   1   4
BRANCH   1  18
HETATM   18  C8  UNK     0       1.233   6.115  10.431  1.00  0.00     0.080 A 
HETATM   19  C14 UNK     0       1.203   7.524  10.666  1.00  0.00     0.026 A 
HETATM   20  C20 UNK     0       2.304   8.161  11.313  1.00  0.00     0.008 A 
HETATM   21  C19 UNK     0       3.433   7.390  11.725  1.00  0.00    -0.062 A 
HETATM   22  C21 UNK     0       3.467   5.983  11.486  1.00  0.00     0.008 A 
HETATM   23  C22 UNK     0       4.627   8.086  12.436  1.00  0.00     0.048 C 
HETATM   24  C15 UNK     0       2.364   5.347  10.841  1.00  0.00     0.026 A 
ENDBRANCH   1  18
TORSDOF 3
ENDMDL
MODEL 3
REMARK VINA RESULT:    -6.945     19.032     21.552
REMARK INTER + INTRA:          -7.947
REMARK INTER:                  -8.730
REMARK INTRA:                   0.782
REMARK UNBOUND:                 0.215
REMARK  3 active torsions:
REMARK  status: ('A' for Active; 'I' for Inactive)
REMARK    1  A    between atoms: S1_1  and  N6_6 
REMARK    2  A    between atoms: S1_1  and  C8_8 
REMARK    3  A    between atoms: N5_5  and  N7_7 
REMARK       I    between atoms: N6_6  and  C11_11 
REMARK       I    between atoms: N7_7  and  C11_11 
ROOT
HETATM    1  S1  UNK     0       0.666   4.486  10.000  1.00  0.00     0.266 S 
HETATM    2  O2  UNK     0       1.262   3.300  10.665  1.00  0.00    -0.200 OA
HETATM    3  O3  UNK     0       0.920   4.391   8.541  1.00  0.00    -0.200 OA
ENDROOT
BRANCH   1   4
HETATM    4  N6  UNK     0      -1.000   4.483  10.278  1.00  0.00    -0.231 N 
HETATM    5  H23 UNK     0      -1.436   4.336  11.243  1.00  0.00     0.183 HD
HETATM    6  C11 UNK     0      -1.762   4.696   9.099  1.00  0.00     0.344 C 
HETATM    7  O4  UNK     0      -1.166   4.822   8.013  1.00  0.00    -0.245 OA
HETATM    8  N7  UNK     0      -3.182   4.768   9.115  1.00  0.00    -0.270 N 
HETATM    9  H24 UNK     0      -3.744   4.719  10.024  1.00  0.00     0.185 HD
BRANCH   8  10
HETATM   10  N5  UNK     0      -3.827   4.916   7.806  1.00  0.00    -0.227 NA
HETATM   11  C12 UNK     0      -4.262   6.347   7.493  1.00  0.00     0.118 C 
HETATM   12  C10 UNK     0      -5.277   6.046   6.360  1.00  0.00     0.006 C 
HETATM   13  C9  UNK     0      -6.109   4.961   7.046  1.00  0.00     0.006 C 
HETATM   14  C16 UNK     0      -6.381   7.071   5.961  1.00  0.00     0.006 C 
HETATM   15  C17 UNK     0      -7.097   4.602   5.888  1.00  0.00     0.006 C 
HETATM   16  C13 UNK     0      -4.992   3.964   7.529  1.00  0.00     0.118 C 
HETATM   17  C18 UNK     0      -7.471   6.069   5.353  1.00  0.00     0.001 C 
ENDBRANCH   8  10
ENDBRANCH   1   4
BRANCH   1  18
HETATM   18  C8  UNK     0       1.434   5.976  10.656  1.00  0.00     0.080 A 
HETATM   19  C14 UNK     0       2.763   5.939  11.177  1.00  0.00     0.026 A 
HETATM   20  C20 UNK     0       3.364   7.132  11.679  1.00  0.00     0.008 A 
HETATM   21  C19 UNK     0       2.636   8.361  11.659  1.00  0.00    -0.062 A 
HETATM   22  C21 UNK     0       1.305   8.398  11.143  1.00  0.00     0.008 A 
HETATM   23  C22 UNK     0       3.296   9.660  12.199  1.00  0.00     0.048 C 
HETATM   24  C15 UNK     0       0.707   7.205  10.639  1.00  0.00     0.026 A 
ENDBRANCH   1  18
TORSDOF 3
ENDMDL
MODEL 4
REMARK VINA RESULT:    -6.879      1.481      1.992
REMARK INTER + INTRA:          -7.871
REMARK INTER:                  -8.032
REMARK INTRA:                   0.162
REMARK UNBOUND:                 0.215
REMARK  3 active torsions:
REMARK  status: ('A' for Active; 'I' for Inactive)
REMARK    1  A    between atoms: S1_1  and  N6_6 
REMARK    2  A    between atoms: S1_1  and  C8_8 
REMARK    3  A    between atoms: N5_5  and  N7_7 
REMARK       I    between atoms: N6_6  and  C11_11 
REMARK       I    between atoms: N7_7  and  C11_11 
ROOT
HETATM    1  S1  UNK     0      -3.584 -12.302  -1.792  1.00  0.00     0.266 S 
HETATM    2  O2  UNK     0      -4.212 -13.481  -1.145  1.00  0.00    -0.200 OA
HETATM    3  O3  UNK     0      -2.141 -12.282  -1.449  1.00  0.00    -0.200 OA
ENDROOT
BRANCH   1   4
HETATM    4  N6  UNK     0      -3.757 -12.447  -3.466  1.00  0.00    -0.231 N 
HETATM    5  H23 UNK     0      -4.304 -13.237  -3.935  1.00  0.00     0.183 HD
HETATM    6  C11 UNK     0      -3.103 -11.413  -4.185  1.00  0.00     0.344 C 
HETATM    7  O4  UNK     0      -2.459 -10.555  -3.553  1.00  0.00    -0.245 OA
HETATM    8  N7  UNK     0      -3.154 -11.323  -5.603  1.00  0.00    -0.270 N 
HETATM    9  H24 UNK     0      -3.732 -12.001  -6.196  1.00  0.00     0.185 HD
BRANCH   8  10
HETATM   10  N5  UNK     0      -2.364 -10.243  -6.203  1.00  0.00    -0.227 NA
HETATM   11  C12 UNK     0      -3.152  -8.951  -6.418  1.00  0.00     0.118 C 
HETATM   12  C10 UNK     0      -2.218  -8.270  -7.452  1.00  0.00     0.006 C 
HETATM   13  C9  UNK     0      -2.053  -9.424  -8.444  1.00  0.00     0.006 C 
HETATM   14  C16 UNK     0      -2.729  -7.133  -8.388  1.00  0.00     0.006 C 
HETATM   15  C17 UNK     0      -1.059  -8.771  -9.460  1.00  0.00     0.006 C 
HETATM   16  C13 UNK     0      -1.622 -10.600  -7.492  1.00  0.00     0.118 C 
HETATM   17  C18 UNK     0      -1.705  -7.308  -9.606  1.00  0.00     0.001 C 
ENDBRANCH   8  10
ENDBRANCH   1   4
BRANCH   1  18
HETATM   18  C8  UNK     0      -4.376 -10.805  -1.182  1.00  0.00     0.080 A 
HETATM   19  C14 UNK     0      -3.772 -10.037  -0.140  1.00  0.00     0.026 A 
HETATM   20  C20 UNK     0      -4.405  -8.844   0.322  1.00  0.00     0.008 A 
HETATM   21  C19 UNK     0      -5.639  -8.419  -0.259  1.00  0.00    -0.062 A 
HETATM   22  C21 UNK     0      -6.245  -9.188  -1.297  1.00  0.00     0.008 A 
HETATM   23  C22 UNK     0      -6.320  -7.115   0.241  1.00  0.00     0.048 C 
HETATM   24  C15 UNK     0      -5.611 -10.380  -1.760  1.00  0.00     0.026 A 
ENDBRANCH   1  18
TORSDOF 3
ENDMDL
MODEL 5
REMARK VINA RESULT:    -6.817     20.768     23.072
REMARK INTER + INTRA:          -7.797
REMARK INTER:                  -8.374
REMARK INTRA:                   0.577
REMARK UNBOUND:                 0.215
REMARK  3 active torsions:
REMARK  status: ('A' for Active; 'I' for Inactive)
REMARK    1  A    between atoms: S1_1  and  N6_6 
REMARK    2  A    between atoms: S1_1  and  C8_8 
REMARK    3  A    between atoms: N5_5  and  N7_7 
REMARK       I    between atoms: N6_6  and  C11_11 
REMARK       I    between atoms: N7_7  and  C11_11 
ROOT
HETATM    1  S1  UNK     0       2.865   5.954  11.795  1.00  0.00     0.266 S 
HETATM    2  O2  UNK     0       3.384   5.389  13.066  1.00  0.00    -0.200 OA
HETATM    3  O3  UNK     0       3.436   5.183  10.663  1.00  0.00    -0.200 OA
ENDROOT
BRANCH   1   4
HETATM    4  N6  UNK     0       1.183   5.802  11.781  1.00  0.00    -0.231 N 
HETATM    5  H23 UNK     0       0.581   5.835  12.665  1.00  0.00     0.183 HD
HETATM    6  C11 UNK     0       0.650   5.626  10.478  1.00  0.00     0.344 C 
HETATM    7  O4  UNK     0       1.433   5.565   9.511  1.00  0.00    -0.245 OA
HETATM    8  N7  UNK     0      -0.746   5.516  10.236  1.00  0.00    -0.270 N 
HETATM    9  H24 UNK     0      -1.469   5.612  11.019  1.00  0.00     0.185 HD
BRANCH   8  10
HETATM   10  N5  UNK     0      -1.134   5.262   8.845  1.00  0.00    -0.227 NA
HETATM   11  C12 UNK     0      -1.364   6.533   8.028  1.00  0.00     0.118 C 
HETATM   12  C10 UNK     0      -2.190   5.924   6.865  1.00  0.00     0.006 C 
HETATM   13  C9  UNK     0      -3.232   5.147   7.673  1.00  0.00     0.006 C 
HETATM   14  C16 UNK     0      -3.100   6.809   5.960  1.00  0.00     0.006 C 
HETATM   15  C17 UNK     0      -4.033   4.475   6.509  1.00  0.00     0.006 C 
HETATM   16  C13 UNK     0      -2.321   4.316   8.649  1.00  0.00     0.118 C 
HETATM   17  C18 UNK     0      -4.160   5.707   5.488  1.00  0.00     0.001 C 
ENDBRANCH   8  10
ENDBRANCH   1   4
BRANCH   1  18
HETATM   18  C8  UNK     0       3.365   7.679  11.671  1.00  0.00     0.080 A 
HETATM   19  C14 UNK     0       2.426   8.680  11.274  1.00  0.00     0.026 A 
HETATM   20  C20 UNK     0       2.834  10.045  11.196  1.00  0.00     0.008 A 
HETATM   21  C19 UNK     0       4.177  10.409  11.516  1.00  0.00    -0.062 A 
HETATM   22  C21 UNK     0       5.117   9.409  11.908  1.00  0.00     0.008 A 
HETATM   23  C22 UNK     0       4.616  11.898  11.437  1.00  0.00     0.048 C 
HETATM   24  C15 UNK     0       4.708   8.044  11.988  1.00  0.00     0.026 A 
ENDBRANCH   1  18
TORSDOF 3
ENDMDL
MODEL 6
REMARK VINA RESULT:    -6.770     16.117     17.131
REMARK INTER + INTRA:          -7.742
REMARK INTER:                  -8.249
REMARK INTRA:                   0.507
REMARK UNBOUND:                 0.215
REMARK  3 active torsions:
REMARK  status: ('A' for Active; 'I' for Inactive)
REMARK    1  A    between atoms: S1_1  and  N6_6 
REMARK    2  A    between atoms: S1_1  and  C8_8 
REMARK    3  A    between atoms: N5_5  and  N7_7 
REMARK       I    between atoms: N6_6  and  C11_11 
REMARK       I    between atoms: N7_7  and  C11_11 
ROOT
HETATM    1  S1  UNK     0      -4.233   5.473   3.128  1.00  0.00     0.266 S 
HETATM    2  O2  UNK     0      -4.350   4.730   4.407  1.00  0.00    -0.200 OA
HETATM    3  O3  UNK     0      -2.878   5.246   2.568  1.00  0.00    -0.200 OA
ENDROOT
BRANCH   1   4
HETATM    4  N6  UNK     0      -5.389   4.881   2.049  1.00  0.00    -0.231 N 
HETATM    5  H23 UNK     0      -6.320   4.454   2.359  1.00  0.00     0.183 HD
HETATM    6  C11 UNK     0      -4.999   5.006   0.690  1.00  0.00     0.344 C 
HETATM    7  O4  UNK     0      -3.880   5.484   0.427  1.00  0.00    -0.245 OA
HETATM    8  N7  UNK     0      -5.842   4.604  -0.382  1.00  0.00    -0.270 N 
HETATM    9  H24 UNK     0      -6.833   4.236  -0.220  1.00  0.00     0.185 HD
BRANCH   8  10
HETATM   10  N5  UNK     0      -5.266   4.728  -1.726  1.00  0.00    -0.227 NA
HETATM   11  C12 UNK     0      -5.595   6.050  -2.417  1.00  0.00     0.118 C 
HETATM   12  C10 UNK     0      -5.284   5.640  -3.880  1.00  0.00     0.006 C 
HETATM   13  C9  UNK     0      -6.085   4.338  -3.954  1.00  0.00     0.006 C 
HETATM   14  C16 UNK     0      -5.869   6.429  -5.090  1.00  0.00     0.006 C 
HETATM   15  C17 UNK     0      -5.726   3.880  -5.406  1.00  0.00     0.006 C 
HETATM   16  C13 UNK     0      -5.563   3.572  -2.684  1.00  0.00     0.118 C 
HETATM   17  C18 UNK     0      -5.856   5.272  -6.195  1.00  0.00     0.001 C 
ENDBRANCH   8  10
ENDBRANCH   1   4
BRANCH   1  18
HETATM   18  C8  UNK     0      -4.475   7.229   3.443  1.00  0.00     0.080 A 
HETATM   19  C14 UNK     0      -4.209   8.194   2.424  1.00  0.00     0.026 A 
HETATM   20  C20 UNK     0      -4.421   9.581   2.684  1.00  0.00     0.008 A 
HETATM   21  C19 UNK     0      -4.900  10.003   3.962  1.00  0.00    -0.062 A 
HETATM   22  C21 UNK     0      -5.162   9.040   4.983  1.00  0.00     0.008 A 
HETATM   23  C22 UNK     0      -5.137  11.512   4.240  1.00  0.00     0.048 C 
HETATM   24  C15 UNK     0      -4.951   7.653   4.721  1.00  0.00     0.026 A 
ENDBRANCH   1  18
TORSDOF 3
ENDMDL
MODEL 7
REMARK VINA RESULT:    -6.749     22.726     24.492
REMARK INTER + INTRA:          -7.718
REMARK INTER:                  -8.035
REMARK INTRA:                   0.318
REMARK UNBOUND:                 0.215
REMARK  3 active torsions:
REMARK  status: ('A' for Active; 'I' for Inactive)
REMARK    1  A    between atoms: S1_1  and  N6_6 
REMARK    2  A    between atoms: S1_1  and  C8_8 
REMARK    3  A    between atoms: N5_5  and  N7_7 
REMARK       I    between atoms: N6_6  and  C11_11 
REMARK       I    between atoms: N7_7  and  C11_11 
ROOT
HETATM    1  S1  UNK     0       7.448  12.838  -1.327  1.00  0.00     0.266 S 
HETATM    2  O2  UNK     0       6.506  13.745  -2.029  1.00  0.00    -0.200 OA
HETATM    3  O3  UNK     0       8.826  13.361  -1.494  1.00  0.00    -0.200 OA
ENDROOT
BRANCH   1   4
HETATM    4  N6  UNK     0       7.055  12.814   0.315  1.00  0.00    -0.231 N 
HETATM    5  H23 UNK     0       7.782  12.892   1.096  1.00  0.00     0.183 HD
HETATM    6  C11 UNK     0       5.663  12.680   0.553  1.00  0.00     0.344 C 
HETATM    7  O4  UNK     0       4.895  12.560  -0.420  1.00  0.00    -0.245 OA
HETATM    8  N7  UNK     0       5.112  12.676   1.864  1.00  0.00    -0.270 N 
HETATM    9  H24 UNK     0       5.715  12.827   2.735  1.00  0.00     0.185 HD
BRANCH   8  10
HETATM   10  N5  UNK     0       3.665  12.453   1.948  1.00  0.00    -0.227 NA
HETATM   11  C12 UNK     0       2.959  13.364   2.951  1.00  0.00     0.118 C 
HETATM   12  C10 UNK     0       1.647  12.555   3.127  1.00  0.00     0.006 C 
HETATM   13  C9  UNK     0       2.238  11.170   3.398  1.00  0.00     0.006 C 
HETATM   14  C16 UNK     0       0.732  12.747   4.373  1.00  0.00     0.006 C 
HETATM   15  C17 UNK     0       0.922  10.330   3.511  1.00  0.00     0.006 C 
HETATM   16  C13 UNK     0       3.230  11.006   2.188  1.00  0.00     0.118 C 
HETATM   17  C18 UNK     0       0.022  11.312   4.408  1.00  0.00     0.001 C 
ENDBRANCH   8  10
ENDBRANCH   1   4
BRANCH   1  18
HETATM   18  C8  UNK     0       7.329  11.193  -2.050  1.00  0.00     0.080 A 
HETATM   19  C14 UNK     0       6.240  10.855  -2.910  1.00  0.00     0.026 A 
HETATM   20  C20 UNK     0       6.168   9.552  -3.487  1.00  0.00     0.008 A 
HETATM   21  C19 UNK     0       7.185   8.589  -3.206  1.00  0.00    -0.062 A 
HETATM   22  C21 UNK     0       8.271   8.924  -2.343  1.00  0.00     0.008 A 
HETATM   23  C22 UNK     0       7.108   7.174  -3.843  1.00  0.00     0.048 C 
HETATM   24  C15 UNK     0       8.343  10.228  -1.768  1.00  0.00     0.026 A 
ENDBRANCH   1  18
TORSDOF 3
ENDMDL
MODEL 8
REMARK VINA RESULT:    -6.659     13.316     14.120
REMARK INTER + INTRA:          -7.611
REMARK INTER:                  -7.947
REMARK INTRA:                   0.336
REMARK UNBOUND:                 0.215
REMARK  3 active torsions:
REMARK  status: ('A' for Active; 'I' for Inactive)
REMARK    1  A    between atoms: S1_1  and  N6_6 
REMARK    2  A    between atoms: S1_1  and  C8_8 
REMARK    3  A    between atoms: N5_5  and  N7_7 
REMARK       I    between atoms: N6_6  and  C11_11 
REMARK       I    between atoms: N7_7  and  C11_11 
ROOT
HETATM    1  S1  UNK     0      -1.206   3.481  -2.875  1.00  0.00     0.266 S 
HETATM    2  O2  UNK     0      -2.630   3.860  -2.704  1.00  0.00    -0.200 OA
HETATM    3  O3  UNK     0      -1.134   2.035  -3.201  1.00  0.00    -0.200 OA
ENDROOT
BRANCH   1   4
HETATM    4  N6  UNK     0      -0.556   4.374  -4.152  1.00  0.00    -0.231 N 
HETATM    5  H23 UNK     0       0.133   5.181  -4.017  1.00  0.00     0.183 HD
HETATM    6  C11 UNK     0      -1.018   3.944  -5.424  1.00  0.00     0.344 C 
HETATM    7  O4  UNK     0      -1.848   3.018  -5.481  1.00  0.00    -0.245 OA
HETATM    8  N7  UNK     0      -0.567   4.535  -6.636  1.00  0.00    -0.270 N 
HETATM    9  H24 UNK     0       0.183   5.299  -6.652  1.00  0.00     0.185 HD
BRANCH   8  10
HETATM   10  N5  UNK     0      -1.194   4.033  -7.862  1.00  0.00    -0.227 NA
HETATM   11  C12 UNK     0      -0.272   3.159  -8.712  1.00  0.00     0.118 C 
HETATM   12  C10 UNK     0      -1.041   3.236 -10.057  1.00  0.00     0.006 C 
HETATM   13  C9  UNK     0      -1.225   4.751 -10.158  1.00  0.00     0.006 C 
HETATM   14  C16 UNK     0      -0.343   2.920 -11.414  1.00  0.00     0.006 C 
HETATM   15  C17 UNK     0      -2.058   4.837 -11.480  1.00  0.00     0.006 C 
HETATM   16  C13 UNK     0      -1.849   5.090  -8.754  1.00  0.00     0.118 C 
HETATM   17  C18 UNK     0      -1.266   3.784 -12.396  1.00  0.00     0.001 C 
ENDBRANCH   8  10
ENDBRANCH   1   4
BRANCH   1  18
HETATM   18  C8  UNK     0      -0.323   3.803  -1.339  1.00  0.00     0.080 A 
HETATM   19  C14 UNK     0       0.675   2.895  -0.871  1.00  0.00     0.026 A 
HETATM   20  C20 UNK     0       1.376   3.172   0.341  1.00  0.00     0.008 A 
HETATM   21  C19 UNK     0       1.081   4.357   1.082  1.00  0.00    -0.062 A 
HETATM   22  C21 UNK     0       0.080   5.263   0.617  1.00  0.00     0.008 A 
HETATM   23  C22 UNK     0       1.853   4.660   2.396  1.00  0.00     0.048 C 
HETATM   24  C15 UNK     0      -0.619   4.985  -0.596  1.00  0.00     0.026 A 
ENDBRANCH   1  18
TORSDOF 3
ENDMDL
MODEL 9
REMARK VINA RESULT:    -6.630     15.207     17.375
REMARK INTER + INTRA:          -7.578
REMARK INTER:                  -7.667
REMARK INTRA:                   0.089
REMARK UNBOUND:                 0.215
REMARK  3 active torsions:
REMARK  status: ('A' for Active; 'I' for Inactive)
REMARK    1  A    between atoms: S1_1  and  N6_6 
REMARK    2  A    between atoms: S1_1  and  C8_8 
REMARK    3  A    between atoms: N5_5  and  N7_7 
REMARK       I    between atoms: N6_6  and  C11_11 
REMARK       I    between atoms: N7_7  and  C11_11 
ROOT
HETATM    1  S1  UNK     0      -3.302   2.920  -1.855  1.00  0.00     0.266 S 
HETATM    2  O2  UNK     0      -2.311   2.018  -2.492  1.00  0.00    -0.200 OA
HETATM    3  O3  UNK     0      -4.296   2.096  -1.124  1.00  0.00    -0.200 OA
ENDROOT
BRANCH   1   4
HETATM    4  N6  UNK     0      -2.497   3.924  -0.761  1.00  0.00    -0.231 N 
HETATM    5  H23 UNK     0      -1.439   3.901  -0.609  1.00  0.00     0.183 HD
HETATM    6  C11 UNK     0      -3.369   4.800  -0.063  1.00  0.00     0.344 C 
HETATM    7  O4  UNK     0      -4.593   4.729  -0.280  1.00  0.00    -0.245 OA
HETATM    8  N7  UNK     0      -2.895   5.755   0.878  1.00  0.00    -0.270 N 
HETATM    9  H24 UNK     0      -1.851   5.897   1.068  1.00  0.00     0.185 HD
BRANCH   8  10
HETATM   10  N5  UNK     0      -3.926   6.534   1.571  1.00  0.00    -0.227 NA
HETATM   11  C12 UNK     0      -3.708   8.045   1.499  1.00  0.00     0.118 C 
HETATM   12  C10 UNK     0      -4.622   8.475   2.676  1.00  0.00     0.006 C 
HETATM   13  C9  UNK     0      -4.109   7.521   3.757  1.00  0.00     0.006 C 
HETATM   14  C16 UNK     0      -4.451   9.855   3.378  1.00  0.00     0.006 C 
HETATM   15  C17 UNK     0      -5.069   7.901   4.932  1.00  0.00     0.006 C 
HETATM   16  C13 UNK     0      -4.197   6.133   3.023  1.00  0.00     0.118 C 
HETATM   17  C18 UNK     0      -5.060   9.502   4.815  1.00  0.00     0.001 C 
ENDBRANCH   8  10
ENDBRANCH   1   4
BRANCH   1  18
HETATM   18  C8  UNK     0      -4.130   3.881  -3.133  1.00  0.00     0.080 A 
HETATM   19  C14 UNK     0      -5.473   3.578  -3.514  1.00  0.00     0.026 A 
HETATM   20  C20 UNK     0      -6.120   4.359  -4.518  1.00  0.00     0.008 A 
HETATM   21  C19 UNK     0      -5.426   5.442  -5.139  1.00  0.00    -0.062 A 
HETATM   22  C21 UNK     0      -4.082   5.742  -4.762  1.00  0.00     0.008 A 
HETATM   23  C22 UNK     0      -6.136   6.295  -6.226  1.00  0.00     0.048 C 
HETATM   24  C15 UNK     0      -3.437   4.962  -3.756  1.00  0.00     0.026 A 
ENDBRANCH   1  18
TORSDOF 3
ENDMDL
