MODEL 2
REMARK VINA RESULT:    -7.632      1.362      1.676
REMARK INTER + INTRA:         -12.904
REMARK INTER:                 -11.533
REMARK INTRA:                  -1.372
REMARK UNBOUND:                -1.033
REMARK  10 active torsions:
REMARK  status: ('A' for Active; 'I' for Inactive)
REMARK    1  A    between atoms: S1_1  and  C19_19 
REMARK    2  A    between atoms: S1_1  and  N7_7 
REMARK    3  A    between atoms: O5_5  and  C24_24 
REMARK    4  A    between atoms: N8_8  and  C18_18 
REMARK       I    between atoms: N8_8  and  C17_17 
REMARK    5  A    between atoms: N9_9  and  C27_27 
REMARK       I    between atoms: N10_10  and  C30_30 
REMARK       I    between atoms: N11_11  and  C30_30 
REMARK    6  A    between atoms: C12_12  and  C17_17 
REMARK    7  A    between atoms: C18_18  and  C20_20 
REMARK    8  A    between atoms: C18_18  and  C24_24 
REMARK    9  A    between atoms: C20_20  and  C21_21 
REMARK   10  A    between atoms: C21_21  and  C27_27 
ROOT
HETATM    1  S1  UNK     0      -5.092   6.339   6.063  1.00  0.00     0.243 S 
HETATM    2  O2  UNK     0      -4.933   7.684   5.469  1.00  0.00    -0.206 OA
HETATM    3  O3  UNK     0      -6.201   6.383   7.046  1.00  0.00    -0.206 OA
ENDROOT
BRANCH   1   4
HETATM    4  C19 UNK     0      -3.572   5.897   6.916  1.00  0.00     0.074 A 
HETATM    5  C23 UNK     0      -3.510   4.704   7.695  1.00  0.00     0.025 A 
HETATM    6  C26 UNK     0      -2.294   4.345   8.348  1.00  0.00     0.008 A 
HETATM    7  C28 UNK     0      -1.142   5.174   8.215  1.00  0.00    -0.062 A 
HETATM    8  C25 UNK     0      -1.206   6.367   7.438  1.00  0.00     0.008 A 
HETATM    9  C29 UNK     0       0.184   4.779   8.917  1.00  0.00     0.048 C 
HETATM   10  C22 UNK     0      -2.421   6.728   6.786  1.00  0.00     0.025 A 
ENDBRANCH   1   4
BRANCH   1  11
HETATM   11  N7  UNK     0      -5.485   5.243   4.843  1.00  0.00    -0.206 NA
HETATM   12  C16 UNK     0      -4.410   5.567   3.821  1.00  0.00     0.108 C 
HETATM   13  C14 UNK     0      -4.818   5.141   2.359  1.00  0.00     0.029 C 
HETATM   14  C12 UNK     0      -6.171   5.855   2.002  1.00  0.00     0.080 C 
HETATM   15  C13 UNK     0      -7.271   5.316   2.984  1.00  0.00     0.029 C 
HETATM   16  C15 UNK     0      -6.864   5.748   4.447  1.00  0.00     0.108 C 
BRANCH  14  17
HETATM   17  C17 UNK     0      -6.561   5.569   0.525  1.00  0.00     0.222 C 
HETATM   18  O4  UNK     0      -7.553   6.124   0.020  1.00  0.00    -0.273 OA
HETATM   19  N8  UNK     0      -5.759   4.690  -0.251  1.00  0.00    -0.346 N 
HETATM   20  H33 UNK     0      -4.900   4.244   0.206  1.00  0.00     0.163 HD
BRANCH  19  21
HETATM   21  C18 UNK     0      -6.064   4.358  -1.696  1.00  0.00     0.182 C 
BRANCH  21  22
HETATM   22  C20 UNK     0      -5.204   5.275  -2.658  1.00  0.00     0.038 C 
BRANCH  22  23
HETATM   23  C21 UNK     0      -4.016   5.947  -1.858  1.00  0.00     0.025 C 
BRANCH  23  24
HETATM   24  C27 UNK     0      -2.622   5.468  -2.419  1.00  0.00     0.169 C 
BRANCH  24  25
HETATM   25  N9  UNK     0      -2.571   3.960  -2.533  1.00  0.00    -0.108 NA
HETATM   26  C30 UNK     0      -1.797   3.267  -1.690  1.00  0.00     0.686 C 
HETATM   27  N10 UNK     0      -1.735   1.853  -1.774  1.00  0.00    -0.234 N 
HETATM   28  N11 UNK     0      -1.035   3.952  -0.707  1.00  0.00    -0.234 N 
HETATM   29  H35 UNK     0      -2.308   1.335  -2.515  1.00  0.00     0.174 HD
HETATM   30  H34 UNK     0      -1.115   1.304  -1.098  1.00  0.00     0.174 HD
HETATM   31  H36 UNK     0      -1.080   5.020  -0.642  1.00  0.00     0.174 HD
HETATM   32  H37 UNK     0      -0.415   3.401  -0.030  1.00  0.00     0.174 HD
ENDBRANCH  24  25
ENDBRANCH  23  24
ENDBRANCH  22  23
ENDBRANCH  21  22
BRANCH  21  33
HETATM   33  C24 UNK     0      -5.716   2.867  -1.959  1.00  0.00     0.163 C 
HETATM   34  O6  UNK     0      -6.153   2.292  -2.972  1.00  0.00    -0.648 OA
BRANCH  33  35
HETATM   35  O5  UNK     0      -4.901   2.173  -1.059  1.00  0.00    -0.775 OA
HETATM   36  H32 UNK     0      -5.386   1.292  -0.756  1.00  0.00     0.167 HD
ENDBRANCH  33  35
ENDBRANCH  21  33
ENDBRANCH  19  21
ENDBRANCH  14  17
ENDBRANCH   1  11
TORSDOF 10
ENDMDL
