MODEL 1
REMARK VINA RESULT:    -7.678      0.000      0.000
REMARK INTER + INTRA:         -12.975
REMARK INTER:                 -11.941
REMARK INTRA:                  -1.033
REMARK UNBOUND:                -1.033
REMARK  10 active torsions:
REMARK  status: ('A' for Active; 'I' for Inactive)
REMARK    1  A    between atoms: S1_1  and  C19_19 
REMARK    2  A    between atoms: S1_1  and  N7_7 
REMARK    3  A    between atoms: O5_5  and  C24_24 
REMARK    4  A    between atoms: N8_8  and  C18_18 
REMARK       I    between atoms: N8_8  and  C17_17 
REMARK    5  A    between atoms: N9_9  and  C27_27 
REMARK       I    between atoms: N10_10  and  C30_30 
REMARK       I    between atoms: N11_11  and  C30_30 
REMARK    6  A    between atoms: C12_12  and  C17_17 
REMARK    7  A    between atoms: C18_18  and  C20_20 
REMARK    8  A    between atoms: C18_18  and  C24_24 
REMARK    9  A    between atoms: C20_20  and  C21_21 
REMARK   10  A    between atoms: C21_21  and  C27_27 
ROOT
HETATM    1  S1  UNK     0      -4.610   6.600   5.197  1.00  0.00     0.243 S 
HETATM    2  O2  UNK     0      -4.908   8.012   5.521  1.00  0.00    -0.206 OA
HETATM    3  O3  UNK     0      -5.848   5.803   5.370  1.00  0.00    -0.206 OA
ENDROOT
BRANCH   1   4
HETATM    4  C19 UNK     0      -3.359   5.993   6.338  1.00  0.00     0.074 A 
HETATM    5  C23 UNK     0      -3.683   4.966   7.273  1.00  0.00     0.025 A 
HETATM    6  C26 UNK     0      -2.680   4.470   8.158  1.00  0.00     0.008 A 
HETATM    7  C28 UNK     0      -1.357   4.997   8.101  1.00  0.00    -0.062 A 
HETATM    8  C25 UNK     0      -1.036   6.025   7.168  1.00  0.00     0.008 A 
HETATM    9  C29 UNK     0      -0.262   4.452   9.057  1.00  0.00     0.048 C 
HETATM   10  C22 UNK     0      -2.037   6.523   6.284  1.00  0.00     0.025 A 
ENDBRANCH   1   4
BRANCH   1  11
HETATM   11  N7  UNK     0      -4.115   6.498   3.588  1.00  0.00    -0.206 NA
HETATM   12  C16 UNK     0      -5.055   7.503   2.945  1.00  0.00     0.108 C 
HETATM   13  C14 UNK     0      -5.251   7.244   1.401  1.00  0.00     0.029 C 
HETATM   14  C12 UNK     0      -5.778   5.776   1.217  1.00  0.00     0.080 C 
HETATM   15  C13 UNK     0      -4.664   4.797   1.730  1.00  0.00     0.029 C 
HETATM   16  C15 UNK     0      -4.472   5.054   3.276  1.00  0.00     0.108 C 
BRANCH  14  17
HETATM   17  C17 UNK     0      -6.107   5.503  -0.278  1.00  0.00     0.222 C 
HETATM   18  O4  UNK     0      -7.067   6.077  -0.824  1.00  0.00    -0.273 OA
HETATM   19  N8  UNK     0      -5.285   4.616  -1.023  1.00  0.00    -0.346 N 
HETATM   20  H33 UNK     0      -4.455   4.153  -0.531  1.00  0.00     0.163 HD
BRANCH  19  21
HETATM   21  C18 UNK     0      -5.531   4.295  -2.481  1.00  0.00     0.182 C 
BRANCH  21  22
HETATM   22  C20 UNK     0      -4.194   4.473  -3.310  1.00  0.00     0.038 C 
BRANCH  22  23
HETATM   23  C21 UNK     0      -2.953   3.985  -2.459  1.00  0.00     0.025 C 
BRANCH  23  24
HETATM   24  C27 UNK     0      -2.342   2.664  -3.067  1.00  0.00     0.169 C 
BRANCH  24  25
HETATM   25  N9  UNK     0      -1.757   1.787  -1.982  1.00  0.00    -0.108 NA
HETATM   26  C30 UNK     0      -0.429   1.750  -1.818  1.00  0.00     0.686 C 
HETATM   27  N10 UNK     0       0.144   0.937  -0.806  1.00  0.00    -0.234 N 
HETATM   28  N11 UNK     0       0.408   2.526  -2.662  1.00  0.00    -0.234 N 
HETATM   29  H35 UNK     0      -0.486   0.351  -0.170  1.00  0.00     0.174 HD
HETATM   30  H34 UNK     0       1.205   0.911  -0.679  1.00  0.00     0.174 HD
HETATM   31  H36 UNK     0      -0.023   3.139  -3.427  1.00  0.00     0.174 HD
HETATM   32  H37 UNK     0       1.470   2.499  -2.533  1.00  0.00     0.174 HD
ENDBRANCH  24  25
ENDBRANCH  23  24
ENDBRANCH  22  23
ENDBRANCH  21  22
BRANCH  21  33
HETATM   33  C24 UNK     0      -6.020   2.826  -2.603  1.00  0.00     0.163 C 
HETATM   34  O6  UNK     0      -6.236   2.330  -3.723  1.00  0.00    -0.648 OA
BRANCH  33  35
HETATM   35  O5  UNK     0      -6.209   2.056  -1.451  1.00  0.00    -0.775 OA
HETATM   36  H32 UNK     0      -5.331   2.065  -0.877  1.00  0.00     0.167 HD
ENDBRANCH  33  35
ENDBRANCH  21  33
ENDBRANCH  19  21
ENDBRANCH  14  17
ENDBRANCH   1  11
TORSDOF 10
ENDMDL
MODEL 2
REMARK VINA RESULT:    -7.632      1.362      1.676
REMARK INTER + INTRA:         -12.904
REMARK INTER:                 -11.533
REMARK INTRA:                  -1.372
REMARK UNBOUND:                -1.033
REMARK  10 active torsions:
REMARK  status: ('A' for Active; 'I' for Inactive)
REMARK    1  A    between atoms: S1_1  and  C19_19 
REMARK    2  A    between atoms: S1_1  and  N7_7 
REMARK    3  A    between atoms: O5_5  and  C24_24 
REMARK    4  A    between atoms: N8_8  and  C18_18 
REMARK       I    between atoms: N8_8  and  C17_17 
REMARK    5  A    between atoms: N9_9  and  C27_27 
REMARK       I    between atoms: N10_10  and  C30_30 
REMARK       I    between atoms: N11_11  and  C30_30 
REMARK    6  A    between atoms: C12_12  and  C17_17 
REMARK    7  A    between atoms: C18_18  and  C20_20 
REMARK    8  A    between atoms: C18_18  and  C24_24 
REMARK    9  A    between atoms: C20_20  and  C21_21 
REMARK   10  A    between atoms: C21_21  and  C27_27 
ROOT
HETATM    1  S1  UNK     0      -5.092   6.339   6.063  1.00  0.00     0.243 S 
HETATM    2  O2  UNK     0      -4.933   7.684   5.469  1.00  0.00    -0.206 OA
HETATM    3  O3  UNK     0      -6.201   6.383   7.046  1.00  0.00    -0.206 OA
ENDROOT
BRANCH   1   4
HETATM    4  C19 UNK     0      -3.572   5.897   6.916  1.00  0.00     0.074 A 
HETATM    5  C23 UNK     0      -3.510   4.704   7.695  1.00  0.00     0.025 A 
HETATM    6  C26 UNK     0      -2.294   4.345   8.348  1.00  0.00     0.008 A 
HETATM    7  C28 UNK     0      -1.142   5.174   8.215  1.00  0.00    -0.062 A 
HETATM    8  C25 UNK     0      -1.206   6.367   7.438  1.00  0.00     0.008 A 
HETATM    9  C29 UNK     0       0.184   4.779   8.917  1.00  0.00     0.048 C 
HETATM   10  C22 UNK     0      -2.421   6.728   6.786  1.00  0.00     0.025 A 
ENDBRANCH   1   4
BRANCH   1  11
HETATM   11  N7  UNK     0      -5.485   5.243   4.843  1.00  0.00    -0.206 NA
HETATM   12  C16 UNK     0      -4.410   5.567   3.821  1.00  0.00     0.108 C 
HETATM   13  C14 UNK     0      -4.818   5.141   2.359  1.00  0.00     0.029 C 
HETATM   14  C12 UNK     0      -6.171   5.855   2.002  1.00  0.00     0.080 C 
HETATM   15  C13 UNK     0      -7.271   5.316   2.984  1.00  0.00     0.029 C 
HETATM   16  C15 UNK     0      -6.864   5.748   4.447  1.00  0.00     0.108 C 
BRANCH  14  17
HETATM   17  C17 UNK     0      -6.561   5.569   0.525  1.00  0.00     0.222 C 
HETATM   18  O4  UNK     0      -7.553   6.124   0.020  1.00  0.00    -0.273 OA
HETATM   19  N8  UNK     0      -5.759   4.690  -0.251  1.00  0.00    -0.346 N 
HETATM   20  H33 UNK     0      -4.900   4.244   0.206  1.00  0.00     0.163 HD
BRANCH  19  21
HETATM   21  C18 UNK     0      -6.064   4.358  -1.696  1.00  0.00     0.182 C 
BRANCH  21  22
HETATM   22  C20 UNK     0      -5.204   5.275  -2.658  1.00  0.00     0.038 C 
BRANCH  22  23
HETATM   23  C21 UNK     0      -4.016   5.947  -1.858  1.00  0.00     0.025 C 
BRANCH  23  24
HETATM   24  C27 UNK     0      -2.622   5.468  -2.419  1.00  0.00     0.169 C 
BRANCH  24  25
HETATM   25  N9  UNK     0      -2.571   3.960  -2.533  1.00  0.00    -0.108 NA
HETATM   26  C30 UNK     0      -1.797   3.267  -1.690  1.00  0.00     0.686 C 
HETATM   27  N10 UNK     0      -1.735   1.853  -1.774  1.00  0.00    -0.234 N 
HETATM   28  N11 UNK     0      -1.035   3.952  -0.707  1.00  0.00    -0.234 N 
HETATM   29  H35 UNK     0      -2.308   1.335  -2.515  1.00  0.00     0.174 HD
HETATM   30  H34 UNK     0      -1.115   1.304  -1.098  1.00  0.00     0.174 HD
HETATM   31  H36 UNK     0      -1.080   5.020  -0.642  1.00  0.00     0.174 HD
HETATM   32  H37 UNK     0      -0.415   3.401  -0.030  1.00  0.00     0.174 HD
ENDBRANCH  24  25
ENDBRANCH  23  24
ENDBRANCH  22  23
ENDBRANCH  21  22
BRANCH  21  33
HETATM   33  C24 UNK     0      -5.716   2.867  -1.959  1.00  0.00     0.163 C 
HETATM   34  O6  UNK     0      -6.153   2.292  -2.972  1.00  0.00    -0.648 OA
BRANCH  33  35
HETATM   35  O5  UNK     0      -4.901   2.173  -1.059  1.00  0.00    -0.775 OA
HETATM   36  H32 UNK     0      -5.386   1.292  -0.756  1.00  0.00     0.167 HD
ENDBRANCH  33  35
ENDBRANCH  21  33
ENDBRANCH  19  21
ENDBRANCH  14  17
ENDBRANCH   1  11
TORSDOF 10
ENDMDL
MODEL 3
REMARK VINA RESULT:    -7.535      2.319      2.985
REMARK INTER + INTRA:         -12.753
REMARK INTER:                 -11.725
REMARK INTRA:                  -1.028
REMARK UNBOUND:                -1.033
REMARK  10 active torsions:
REMARK  status: ('A' for Active; 'I' for Inactive)
REMARK    1  A    between atoms: S1_1  and  C19_19 
REMARK    2  A    between atoms: S1_1  and  N7_7 
REMARK    3  A    between atoms: O5_5  and  C24_24 
REMARK    4  A    between atoms: N8_8  and  C18_18 
REMARK       I    between atoms: N8_8  and  C17_17 
REMARK    5  A    between atoms: N9_9  and  C27_27 
REMARK       I    between atoms: N10_10  and  C30_30 
REMARK       I    between atoms: N11_11  and  C30_30 
REMARK    6  A    between atoms: C12_12  and  C17_17 
REMARK    7  A    between atoms: C18_18  and  C20_20 
REMARK    8  A    between atoms: C18_18  and  C24_24 
REMARK    9  A    between atoms: C20_20  and  C21_21 
REMARK   10  A    between atoms: C21_21  and  C27_27 
ROOT
HETATM    1  S1  UNK     0      -5.220   6.360   6.284  1.00  0.00     0.243 S 
HETATM    2  O2  UNK     0      -5.106   7.716   5.704  1.00  0.00    -0.206 OA
HETATM    3  O3  UNK     0      -6.274   6.379   7.327  1.00  0.00    -0.206 OA
ENDROOT
BRANCH   1   4
HETATM    4  C19 UNK     0      -3.652   5.918   7.045  1.00  0.00     0.074 A 
HETATM    5  C23 UNK     0      -3.538   4.713   7.798  1.00  0.00     0.025 A 
HETATM    6  C26 UNK     0      -2.285   4.355   8.378  1.00  0.00     0.008 A 
HETATM    7  C28 UNK     0      -1.150   5.197   8.198  1.00  0.00    -0.062 A 
HETATM    8  C25 UNK     0      -1.266   6.402   7.447  1.00  0.00     0.008 A 
HETATM    9  C29 UNK     0       0.217   4.803   8.819  1.00  0.00     0.048 C 
HETATM   10  C22 UNK     0      -2.518   6.763   6.868  1.00  0.00     0.025 A 
ENDBRANCH   1   4
BRANCH   1  11
HETATM   11  N7  UNK     0      -5.671   5.280   5.070  1.00  0.00    -0.206 NA
HETATM   12  C16 UNK     0      -4.460   5.366   4.158  1.00  0.00     0.108 C 
HETATM   13  C14 UNK     0      -4.787   4.935   2.677  1.00  0.00     0.029 C 
HETATM   14  C12 UNK     0      -5.956   5.843   2.151  1.00  0.00     0.080 C 
HETATM   15  C13 UNK     0      -7.224   5.548   3.028  1.00  0.00     0.029 C 
HETATM   16  C15 UNK     0      -6.897   5.985   4.510  1.00  0.00     0.108 C 
BRANCH  14  17
HETATM   17  C17 UNK     0      -6.241   5.546   0.652  1.00  0.00     0.222 C 
HETATM   18  O4  UNK     0      -7.125   6.176   0.045  1.00  0.00    -0.273 OA
HETATM   19  N8  UNK     0      -5.463   4.569  -0.026  1.00  0.00    -0.346 N 
HETATM   20  H33 UNK     0      -4.696   4.058   0.519  1.00  0.00     0.163 HD
BRANCH  19  21
HETATM   21  C18 UNK     0      -5.670   4.219  -1.483  1.00  0.00     0.182 C 
BRANCH  21  22
HETATM   22  C20 UNK     0      -4.526   4.865  -2.366  1.00  0.00     0.038 C 
BRANCH  22  23
HETATM   23  C21 UNK     0      -3.177   4.945  -1.542  1.00  0.00     0.025 C 
BRANCH  23  24
HETATM   24  C27 UNK     0      -2.452   6.324  -1.788  1.00  0.00     0.169 C 
BRANCH  24  25
HETATM   25  N9  UNK     0      -3.265   7.208  -2.707  1.00  0.00    -0.108 NA
HETATM   26  C30 UNK     0      -2.658   7.814  -3.734  1.00  0.00     0.686 C 
HETATM   27  N10 UNK     0      -3.398   8.647  -4.612  1.00  0.00    -0.234 N 
HETATM   28  N11 UNK     0      -1.266   7.623  -3.944  1.00  0.00    -0.234 N 
HETATM   29  H35 UNK     0      -4.447   8.792  -4.455  1.00  0.00     0.174 HD
HETATM   30  H34 UNK     0      -2.908   9.128  -5.432  1.00  0.00     0.174 HD
HETATM   31  H36 UNK     0      -0.706   6.996  -3.282  1.00  0.00     0.174 HD
HETATM   32  H37 UNK     0      -0.778   8.106  -4.765  1.00  0.00     0.174 HD
ENDBRANCH  24  25
ENDBRANCH  23  24
ENDBRANCH  22  23
ENDBRANCH  21  22
BRANCH  21  33
HETATM   33  C24 UNK     0      -5.634   2.674  -1.645  1.00  0.00     0.163 C 
HETATM   34  O6  UNK     0      -6.270   2.127  -2.563  1.00  0.00    -0.648 OA
BRANCH  33  35
HETATM   35  O5  UNK     0      -4.876   1.899  -0.762  1.00  0.00    -0.775 OA
HETATM   36  H32 UNK     0      -5.089   2.183   0.226  1.00  0.00     0.167 HD
ENDBRANCH  33  35
ENDBRANCH  21  33
ENDBRANCH  19  21
ENDBRANCH  14  17
ENDBRANCH   1  11
TORSDOF 10
ENDMDL
MODEL 4
REMARK VINA RESULT:    -7.533      2.277      2.887
REMARK INTER + INTRA:         -12.750
REMARK INTER:                 -11.850
REMARK INTRA:                  -0.901
REMARK UNBOUND:                -1.033
REMARK  10 active torsions:
REMARK  status: ('A' for Active; 'I' for Inactive)
REMARK    1  A    between atoms: S1_1  and  C19_19 
REMARK    2  A    between atoms: S1_1  and  N7_7 
REMARK    3  A    between atoms: O5_5  and  C24_24 
REMARK    4  A    between atoms: N8_8  and  C18_18 
REMARK       I    between atoms: N8_8  and  C17_17 
REMARK    5  A    between atoms: N9_9  and  C27_27 
REMARK       I    between atoms: N10_10  and  C30_30 
REMARK       I    between atoms: N11_11  and  C30_30 
REMARK    6  A    between atoms: C12_12  and  C17_17 
REMARK    7  A    between atoms: C18_18  and  C20_20 
REMARK    8  A    between atoms: C18_18  and  C24_24 
REMARK    9  A    between atoms: C20_20  and  C21_21 
REMARK   10  A    between atoms: C21_21  and  C27_27 
ROOT
HETATM    1  S1  UNK     0      -4.557   6.700   5.671  1.00  0.00     0.243 S 
HETATM    2  O2  UNK     0      -4.782   8.119   6.021  1.00  0.00    -0.206 OA
HETATM    3  O3  UNK     0      -5.819   5.952   5.890  1.00  0.00    -0.206 OA
ENDROOT
BRANCH   1   4
HETATM    4  C19 UNK     0      -3.286   6.030   6.752  1.00  0.00     0.074 A 
HETATM    5  C23 UNK     0      -3.564   4.889   7.562  1.00  0.00     0.025 A 
HETATM    6  C26 UNK     0      -2.545   4.346   8.398  1.00  0.00     0.008 A 
HETATM    7  C28 UNK     0      -1.249   4.939   8.417  1.00  0.00    -0.062 A 
HETATM    8  C25 UNK     0      -0.973   6.080   7.609  1.00  0.00     0.008 A 
HETATM    9  C29 UNK     0      -0.135   4.343   9.319  1.00  0.00     0.048 C 
HETATM   10  C22 UNK     0      -1.991   6.625   6.775  1.00  0.00     0.025 A 
ENDBRANCH   1   4
BRANCH   1  11
HETATM   11  N7  UNK     0      -4.134   6.596   4.042  1.00  0.00    -0.206 NA
HETATM   12  C16 UNK     0      -5.117   7.584   3.438  1.00  0.00     0.108 C 
HETATM   13  C14 UNK     0      -5.380   7.314   1.906  1.00  0.00     0.029 C 
HETATM   14  C12 UNK     0      -5.894   5.837   1.753  1.00  0.00     0.080 C 
HETATM   15  C13 UNK     0      -4.744   4.877   2.219  1.00  0.00     0.029 C 
HETATM   16  C15 UNK     0      -4.485   5.145   3.754  1.00  0.00     0.108 C 
BRANCH  14  17
HETATM   17  C17 UNK     0      -6.287   5.551   0.276  1.00  0.00     0.222 C 
HETATM   18  O4  UNK     0      -7.253   6.140  -0.241  1.00  0.00    -0.273 OA
HETATM   19  N8  UNK     0      -5.516   4.634  -0.487  1.00  0.00    -0.346 N 
HETATM   20  H33 UNK     0      -4.678   4.158  -0.020  1.00  0.00     0.163 HD
BRANCH  19  21
HETATM   21  C18 UNK     0      -5.826   4.299  -1.929  1.00  0.00     0.182 C 
BRANCH  21  22
HETATM   22  C20 UNK     0      -4.913   5.159  -2.895  1.00  0.00     0.038 C 
BRANCH  22  23
HETATM   23  C21 UNK     0      -5.785   6.237  -3.657  1.00  0.00     0.025 C 
BRANCH  23  24
HETATM   24  C27 UNK     0      -5.587   6.116  -5.217  1.00  0.00     0.169 C 
BRANCH  24  25
HETATM   25  N9  UNK     0      -4.298   5.396  -5.547  1.00  0.00    -0.108 NA
HETATM   26  C30 UNK     0      -3.453   5.943  -6.428  1.00  0.00     0.686 C 
HETATM   27  N10 UNK     0      -2.236   5.289  -6.753  1.00  0.00    -0.234 N 
HETATM   28  N11 UNK     0      -3.777   7.182  -7.042  1.00  0.00    -0.234 N 
HETATM   29  H35 UNK     0      -1.991   4.355  -6.292  1.00  0.00     0.174 HD
HETATM   30  H34 UNK     0      -1.564   5.731  -7.458  1.00  0.00     0.174 HD
HETATM   31  H36 UNK     0      -4.695   7.676  -6.799  1.00  0.00     0.174 HD
HETATM   32  H37 UNK     0      -3.102   7.622  -7.747  1.00  0.00     0.174 HD
ENDBRANCH  24  25
ENDBRANCH  23  24
ENDBRANCH  22  23
ENDBRANCH  21  22
BRANCH  21  33
HETATM   33  C24 UNK     0      -5.551   2.789  -2.171  1.00  0.00     0.163 C 
HETATM   34  O6  UNK     0      -4.585   2.433  -2.869  1.00  0.00    -0.648 OA
BRANCH  33  35
HETATM   35  O5  UNK     0      -6.387   1.828  -1.593  1.00  0.00    -0.775 OA
HETATM   36  H32 UNK     0      -6.445   1.990  -0.558  1.00  0.00     0.167 HD
ENDBRANCH  33  35
ENDBRANCH  21  33
ENDBRANCH  19  21
ENDBRANCH  14  17
ENDBRANCH   1  11
TORSDOF 10
ENDMDL
MODEL 5
REMARK VINA RESULT:    -7.308      6.450     11.894
REMARK INTER + INTRA:         -12.401
REMARK INTER:                 -11.155
REMARK INTRA:                  -1.246
REMARK UNBOUND:                -1.033
REMARK  10 active torsions:
REMARK  status: ('A' for Active; 'I' for Inactive)
REMARK    1  A    between atoms: S1_1  and  C19_19 
REMARK    2  A    between atoms: S1_1  and  N7_7 
REMARK    3  A    between atoms: O5_5  and  C24_24 
REMARK    4  A    between atoms: N8_8  and  C18_18 
REMARK       I    between atoms: N8_8  and  C17_17 
REMARK    5  A    between atoms: N9_9  and  C27_27 
REMARK       I    between atoms: N10_10  and  C30_30 
REMARK       I    between atoms: N11_11  and  C30_30 
REMARK    6  A    between atoms: C12_12  and  C17_17 
REMARK    7  A    between atoms: C18_18  and  C20_20 
REMARK    8  A    between atoms: C18_18  and  C24_24 
REMARK    9  A    between atoms: C20_20  and  C21_21 
REMARK   10  A    between atoms: C21_21  and  C27_27 
ROOT
HETATM    1  S1  UNK     0       1.125   2.496  -7.790  1.00  0.00     0.243 S 
HETATM    2  O2  UNK     0       1.038   3.936  -7.463  1.00  0.00    -0.206 OA
HETATM    3  O3  UNK     0       2.512   2.035  -7.537  1.00  0.00    -0.206 OA
ENDROOT
BRANCH   1   4
HETATM    4  C19 UNK     0       0.743   2.272  -9.533  1.00  0.00     0.074 A 
HETATM    5  C23 UNK     0      -0.172   3.151 -10.183  1.00  0.00     0.025 A 
HETATM    6  C26 UNK     0      -0.452   2.985 -11.571  1.00  0.00     0.008 A 
HETATM    7  C28 UNK     0       0.188   1.945 -12.307  1.00  0.00    -0.062 A 
HETATM    8  C25 UNK     0       1.101   1.066 -11.655  1.00  0.00     0.008 A 
HETATM    9  C29 UNK     0      -0.107   1.769 -13.820  1.00  0.00     0.048 C 
HETATM   10  C22 UNK     0       1.380   1.230 -10.267  1.00  0.00     0.025 A 
ENDBRANCH   1   4
BRANCH   1  11
HETATM   11  N7  UNK     0       0.073   1.641  -6.787  1.00  0.00    -0.206 NA
HETATM   12  C16 UNK     0      -1.169   2.509  -6.885  1.00  0.00     0.108 C 
HETATM   13  C14 UNK     0      -2.135   2.322  -5.651  1.00  0.00     0.029 C 
HETATM   14  C12 UNK     0      -1.323   2.641  -4.344  1.00  0.00     0.080 C 
HETATM   15  C13 UNK     0      -0.176   1.577  -4.221  1.00  0.00     0.029 C 
HETATM   16  C15 UNK     0       0.793   1.768  -5.454  1.00  0.00     0.108 C 
BRANCH  14  17
HETATM   17  C17 UNK     0      -2.257   2.592  -3.102  1.00  0.00     0.222 C 
HETATM   18  O4  UNK     0      -1.964   1.880  -2.125  1.00  0.00    -0.273 OA
HETATM   19  N8  UNK     0      -3.432   3.390  -3.081  1.00  0.00    -0.346 N 
HETATM   20  H33 UNK     0      -3.646   4.008  -3.928  1.00  0.00     0.163 HD
BRANCH  19  21
HETATM   21  C18 UNK     0      -4.394   3.406  -1.913  1.00  0.00     0.182 C 
BRANCH  21  22
HETATM   22  C20 UNK     0      -4.825   4.893  -1.583  1.00  0.00     0.038 C 
BRANCH  22  23
HETATM   23  C21 UNK     0      -5.401   5.597  -2.878  1.00  0.00     0.025 C 
BRANCH  23  24
HETATM   24  C27 UNK     0      -4.453   6.766  -3.348  1.00  0.00     0.169 C 
BRANCH  24  25
HETATM   25  N9  UNK     0      -3.153   6.224  -3.899  1.00  0.00    -0.108 NA
HETATM   26  C30 UNK     0      -2.853   6.431  -5.186  1.00  0.00     0.686 C 
HETATM   27  N10 UNK     0      -1.639   5.935  -5.726  1.00  0.00    -0.234 N 
HETATM   28  N11 UNK     0      -3.756   7.150  -6.014  1.00  0.00    -0.234 N 
HETATM   29  H35 UNK     0      -0.959   5.392  -5.104  1.00  0.00     0.174 HD
HETATM   30  H34 UNK     0      -1.404   6.104  -6.756  1.00  0.00     0.174 HD
HETATM   31  H36 UNK     0      -4.673   7.524  -5.609  1.00  0.00     0.174 HD
HETATM   32  H37 UNK     0      -3.518   7.318  -7.045  1.00  0.00     0.174 HD
ENDBRANCH  24  25
ENDBRANCH  23  24
ENDBRANCH  22  23
ENDBRANCH  21  22
BRANCH  21  33
HETATM   33  C24 UNK     0      -5.654   2.575  -2.282  1.00  0.00     0.163 C 
HETATM   34  O6  UNK     0      -6.078   2.568  -3.451  1.00  0.00    -0.648 OA
BRANCH  33  35
HETATM   35  O5  UNK     0      -6.308   1.827  -1.298  1.00  0.00    -0.775 OA
HETATM   36  H32 UNK     0      -5.765   1.879  -0.400  1.00  0.00     0.167 HD
ENDBRANCH  33  35
ENDBRANCH  21  33
ENDBRANCH  19  21
ENDBRANCH  14  17
ENDBRANCH   1  11
TORSDOF 10
ENDMDL
MODEL 6
REMARK VINA RESULT:    -7.133      2.909      3.871
REMARK INTER + INTRA:         -12.128
REMARK INTER:                 -11.259
REMARK INTRA:                  -0.868
REMARK UNBOUND:                -1.033
REMARK  10 active torsions:
REMARK  status: ('A' for Active; 'I' for Inactive)
REMARK    1  A    between atoms: S1_1  and  C19_19 
REMARK    2  A    between atoms: S1_1  and  N7_7 
REMARK    3  A    between atoms: O5_5  and  C24_24 
REMARK    4  A    between atoms: N8_8  and  C18_18 
REMARK       I    between atoms: N8_8  and  C17_17 
REMARK    5  A    between atoms: N9_9  and  C27_27 
REMARK       I    between atoms: N10_10  and  C30_30 
REMARK       I    between atoms: N11_11  and  C30_30 
REMARK    6  A    between atoms: C12_12  and  C17_17 
REMARK    7  A    between atoms: C18_18  and  C20_20 
REMARK    8  A    between atoms: C18_18  and  C24_24 
REMARK    9  A    between atoms: C20_20  and  C21_21 
REMARK   10  A    between atoms: C21_21  and  C27_27 
ROOT
HETATM    1  S1  UNK     0      -4.991   6.308   6.372  1.00  0.00     0.243 S 
HETATM    2  O2  UNK     0      -6.104   7.038   7.018  1.00  0.00    -0.206 OA
HETATM    3  O3  UNK     0      -4.277   5.522   7.407  1.00  0.00    -0.206 OA
ENDROOT
BRANCH   1   4
HETATM    4  C19 UNK     0      -3.853   7.500   5.654  1.00  0.00     0.074 A 
HETATM    5  C23 UNK     0      -4.330   8.480   4.735  1.00  0.00     0.025 A 
HETATM    6  C26 UNK     0      -3.428   9.439   4.188  1.00  0.00     0.008 A 
HETATM    7  C28 UNK     0      -2.053   9.421   4.566  1.00  0.00    -0.062 A 
HETATM    8  C25 UNK     0      -1.578   8.439   5.482  1.00  0.00     0.008 A 
HETATM    9  C29 UNK     0      -1.072  10.470   3.979  1.00  0.00     0.048 C 
HETATM   10  C22 UNK     0      -2.478   7.478   6.028  1.00  0.00     0.025 A 
ENDBRANCH   1   4
BRANCH   1  11
HETATM   11  N7  UNK     0      -5.624   5.250   5.221  1.00  0.00    -0.206 NA
HETATM   12  C16 UNK     0      -4.507   5.260   4.192  1.00  0.00     0.108 C 
HETATM   13  C14 UNK     0      -5.007   4.841   2.756  1.00  0.00     0.029 C 
HETATM   14  C12 UNK     0      -6.169   5.813   2.341  1.00  0.00     0.080 C 
HETATM   15  C13 UNK     0      -7.356   5.597   3.343  1.00  0.00     0.029 C 
HETATM   16  C15 UNK     0      -6.857   6.022   4.780  1.00  0.00     0.108 C 
BRANCH  14  17
HETATM   17  C17 UNK     0      -6.619   5.526   0.881  1.00  0.00     0.222 C 
HETATM   18  O4  UNK     0      -7.691   5.989   0.453  1.00  0.00    -0.273 OA
HETATM   19  N8  UNK     0      -5.782   4.753   0.031  1.00  0.00    -0.346 N 
HETATM   20  H33 UNK     0      -4.856   4.386   0.422  1.00  0.00     0.163 HD
BRANCH  19  21
HETATM   21  C18 UNK     0      -6.142   4.427  -1.402  1.00  0.00     0.182 C 
BRANCH  21  22
HETATM   22  C20 UNK     0      -5.547   5.526  -2.375  1.00  0.00     0.038 C 
BRANCH  22  23
HETATM   23  C21 UNK     0      -4.304   6.237  -1.703  1.00  0.00     0.025 C 
BRANCH  23  24
HETATM   24  C27 UNK     0      -3.088   6.304  -2.706  1.00  0.00     0.169 C 
BRANCH  24  25
HETATM   25  N9  UNK     0      -3.444   7.107  -3.938  1.00  0.00    -0.108 NA
HETATM   26  C30 UNK     0      -3.411   6.513  -5.136  1.00  0.00     0.686 C 
HETATM   27  N10 UNK     0      -3.742   7.243  -6.306  1.00  0.00    -0.234 N 
HETATM   28  N11 UNK     0      -3.041   5.145  -5.236  1.00  0.00    -0.234 N 
HETATM   29  H35 UNK     0      -4.021   8.274  -6.233  1.00  0.00     0.174 HD
HETATM   30  H34 UNK     0      -3.715   6.764  -7.262  1.00  0.00     0.174 HD
HETATM   31  H36 UNK     0      -2.789   4.593  -4.354  1.00  0.00     0.174 HD
HETATM   32  H37 UNK     0      -3.013   4.667  -6.193  1.00  0.00     0.174 HD
ENDBRANCH  24  25
ENDBRANCH  23  24
ENDBRANCH  22  23
ENDBRANCH  21  22
BRANCH  21  33
HETATM   33  C24 UNK     0      -5.551   3.039  -1.771  1.00  0.00     0.163 C 
HETATM   34  O6  UNK     0      -4.460   2.961  -2.365  1.00  0.00    -0.648 OA
BRANCH  33  35
HETATM   35  O5  UNK     0      -6.243   1.874  -1.426  1.00  0.00    -0.775 OA
HETATM   36  H32 UNK     0      -5.560   1.087  -1.294  1.00  0.00     0.167 HD
ENDBRANCH  33  35
ENDBRANCH  21  33
ENDBRANCH  19  21
ENDBRANCH  14  17
ENDBRANCH   1  11
TORSDOF 10
ENDMDL
MODEL 7
REMARK VINA RESULT:    -7.090      2.232      2.808
REMARK INTER + INTRA:         -12.061
REMARK INTER:                 -10.723
REMARK INTRA:                  -1.339
REMARK UNBOUND:                -1.033
REMARK  10 active torsions:
REMARK  status: ('A' for Active; 'I' for Inactive)
REMARK    1  A    between atoms: S1_1  and  C19_19 
REMARK    2  A    between atoms: S1_1  and  N7_7 
REMARK    3  A    between atoms: O5_5  and  C24_24 
REMARK    4  A    between atoms: N8_8  and  C18_18 
REMARK       I    between atoms: N8_8  and  C17_17 
REMARK    5  A    between atoms: N9_9  and  C27_27 
REMARK       I    between atoms: N10_10  and  C30_30 
REMARK       I    between atoms: N11_11  and  C30_30 
REMARK    6  A    between atoms: C12_12  and  C17_17 
REMARK    7  A    between atoms: C18_18  and  C20_20 
REMARK    8  A    between atoms: C18_18  and  C24_24 
REMARK    9  A    between atoms: C20_20  and  C21_21 
REMARK   10  A    between atoms: C21_21  and  C27_27 
ROOT
HETATM    1  S1  UNK     0      -4.034   7.309   5.512  1.00  0.00     0.243 S 
HETATM    2  O2  UNK     0      -2.933   8.182   5.974  1.00  0.00    -0.206 OA
HETATM    3  O3  UNK     0      -5.312   8.052   5.640  1.00  0.00    -0.206 OA
ENDROOT
BRANCH   1   4
HETATM    4  C19 UNK     0      -4.099   5.849   6.560  1.00  0.00     0.074 A 
HETATM    5  C23 UNK     0      -2.922   5.392   7.223  1.00  0.00     0.025 A 
HETATM    6  C26 UNK     0      -2.984   4.249   8.073  1.00  0.00     0.008 A 
HETATM    7  C28 UNK     0      -4.223   3.571   8.264  1.00  0.00    -0.062 A 
HETATM    8  C25 UNK     0      -5.398   4.027   7.600  1.00  0.00     0.008 A 
HETATM    9  C29 UNK     0      -4.295   2.333   9.198  1.00  0.00     0.048 C 
HETATM   10  C22 UNK     0      -5.337   5.169   6.748  1.00  0.00     0.025 A 
ENDBRANCH   1   4
BRANCH   1  11
HETATM   11  N7  UNK     0      -3.785   6.924   3.889  1.00  0.00    -0.206 NA
HETATM   12  C16 UNK     0      -4.734   7.904   3.223  1.00  0.00     0.108 C 
HETATM   13  C14 UNK     0      -5.169   7.438   1.780  1.00  0.00     0.029 C 
HETATM   14  C12 UNK     0      -5.821   6.013   1.904  1.00  0.00     0.080 C 
HETATM   15  C13 UNK     0      -4.716   5.023   2.416  1.00  0.00     0.029 C 
HETATM   16  C15 UNK     0      -4.285   5.489   3.863  1.00  0.00     0.108 C 
BRANCH  14  17
HETATM   17  C17 UNK     0      -6.380   5.553   0.529  1.00  0.00     0.222 C 
HETATM   18  O4  UNK     0      -7.518   5.903   0.166  1.00  0.00    -0.273 OA
HETATM   19  N8  UNK     0      -5.571   4.753  -0.322  1.00  0.00    -0.346 N 
HETATM   20  H33 UNK     0      -4.589   4.486   0.010  1.00  0.00     0.163 HD
BRANCH  19  21
HETATM   21  C18 UNK     0      -6.035   4.263  -1.676  1.00  0.00     0.182 C 
BRANCH  21  22
HETATM   22  C20 UNK     0      -5.418   5.166  -2.822  1.00  0.00     0.038 C 
BRANCH  22  23
HETATM   23  C21 UNK     0      -4.539   6.322  -2.194  1.00  0.00     0.025 C 
BRANCH  23  24
HETATM   24  C27 UNK     0      -3.024   5.892  -2.116  1.00  0.00     0.169 C 
BRANCH  24  25
HETATM   25  N9  UNK     0      -2.608   5.627  -0.686  1.00  0.00    -0.108 NA
HETATM   26  C30 UNK     0      -2.068   6.619   0.032  1.00  0.00     0.686 C 
HETATM   27  N10 UNK     0      -1.672   6.396   1.375  1.00  0.00    -0.234 N 
HETATM   28  N11 UNK     0      -1.890   7.899  -0.556  1.00  0.00    -0.234 N 
HETATM   29  H35 UNK     0      -1.804   5.431   1.819  1.00  0.00     0.174 HD
HETATM   30  H34 UNK     0      -1.242   7.192   1.945  1.00  0.00     0.174 HD
HETATM   31  H36 UNK     0      -2.188   8.069  -1.570  1.00  0.00     0.174 HD
HETATM   32  H37 UNK     0      -1.459   8.695   0.015  1.00  0.00     0.174 HD
ENDBRANCH  24  25
ENDBRANCH  23  24
ENDBRANCH  22  23
ENDBRANCH  21  22
BRANCH  21  33
HETATM   33  C24 UNK     0      -5.569   2.794  -1.872  1.00  0.00     0.163 C 
HETATM   34  O6  UNK     0      -4.462   2.553  -2.384  1.00  0.00    -0.648 OA
BRANCH  33  35
HETATM   35  O5  UNK     0      -6.394   1.742  -1.463  1.00  0.00    -0.775 OA
HETATM   36  H32 UNK     0      -7.026   2.071  -0.693  1.00  0.00     0.167 HD
ENDBRANCH  33  35
ENDBRANCH  21  33
ENDBRANCH  19  21
ENDBRANCH  14  17
ENDBRANCH   1  11
TORSDOF 10
ENDMDL
MODEL 8
REMARK VINA RESULT:    -7.084      6.033      9.403
REMARK INTER + INTRA:         -12.051
REMARK INTER:                 -11.023
REMARK INTRA:                  -1.028
REMARK UNBOUND:                -1.033
REMARK  10 active torsions:
REMARK  status: ('A' for Active; 'I' for Inactive)
REMARK    1  A    between atoms: S1_1  and  C19_19 
REMARK    2  A    between atoms: S1_1  and  N7_7 
REMARK    3  A    between atoms: O5_5  and  C24_24 
REMARK    4  A    between atoms: N8_8  and  C18_18 
REMARK       I    between atoms: N8_8  and  C17_17 
REMARK    5  A    between atoms: N9_9  and  C27_27 
REMARK       I    between atoms: N10_10  and  C30_30 
REMARK       I    between atoms: N11_11  and  C30_30 
REMARK    6  A    between atoms: C12_12  and  C17_17 
REMARK    7  A    between atoms: C18_18  and  C20_20 
REMARK    8  A    between atoms: C18_18  and  C24_24 
REMARK    9  A    between atoms: C20_20  and  C21_21 
REMARK   10  A    between atoms: C21_21  and  C27_27 
ROOT
HETATM    1  S1  UNK     0      -6.201   0.528  10.943  1.00  0.00     0.243 S 
HETATM    2  O2  UNK     0      -5.971  -0.187  12.218  1.00  0.00    -0.206 OA
HETATM    3  O3  UNK     0      -6.933   1.785  11.230  1.00  0.00    -0.206 OA
ENDROOT
BRANCH   1   4
HETATM    4  C19 UNK     0      -7.210  -0.504   9.871  1.00  0.00     0.074 A 
HETATM    5  C23 UNK     0      -6.741  -1.789   9.468  1.00  0.00     0.025 A 
HETATM    6  C26 UNK     0      -7.556  -2.615   8.638  1.00  0.00     0.008 A 
HETATM    7  C28 UNK     0      -8.839  -2.157   8.220  1.00  0.00    -0.062 A 
HETATM    8  C25 UNK     0      -9.305  -0.872   8.621  1.00  0.00     0.008 A 
HETATM    9  C29 UNK     0      -9.732  -3.058   7.326  1.00  0.00     0.048 C 
HETATM   10  C22 UNK     0      -8.491  -0.045   9.449  1.00  0.00     0.025 A 
ENDBRANCH   1   4
BRANCH   1  11
HETATM   11  N7  UNK     0      -4.710   0.908  10.251  1.00  0.00    -0.206 NA
HETATM   12  C16 UNK     0      -4.396   2.209  10.969  1.00  0.00     0.108 C 
HETATM   13  C14 UNK     0      -3.379   3.110  10.167  1.00  0.00     0.029 C 
HETATM   14  C12 UNK     0      -3.985   3.380   8.743  1.00  0.00     0.080 C 
HETATM   15  C13 UNK     0      -4.095   2.003   7.999  1.00  0.00     0.029 C 
HETATM   16  C15 UNK     0      -5.117   1.103   8.800  1.00  0.00     0.108 C 
BRANCH  14  17
HETATM   17  C17 UNK     0      -3.082   4.365   7.949  1.00  0.00     0.222 C 
HETATM   18  O4  UNK     0      -1.930   4.618   8.345  1.00  0.00    -0.273 OA
HETATM   19  N8  UNK     0      -3.573   4.952   6.751  1.00  0.00    -0.346 N 
HETATM   20  H33 UNK     0      -4.560   4.699   6.426  1.00  0.00     0.163 HD
BRANCH  19  21
HETATM   21  C18 UNK     0      -2.761   5.918   5.916  1.00  0.00     0.182 C 
BRANCH  21  22
HETATM   22  C20 UNK     0      -3.420   6.086   4.486  1.00  0.00     0.038 C 
BRANCH  22  23
HETATM   23  C21 UNK     0      -4.690   5.152   4.354  1.00  0.00     0.025 C 
BRANCH  23  24
HETATM   24  C27 UNK     0      -6.016   6.006   4.367  1.00  0.00     0.169 C 
BRANCH  24  25
HETATM   25  N9  UNK     0      -7.209   5.150   4.731  1.00  0.00    -0.108 NA
HETATM   26  C30 UNK     0      -7.968   4.639   3.754  1.00  0.00     0.686 C 
HETATM   27  N10 UNK     0      -9.091   3.832   4.069  1.00  0.00    -0.234 N 
HETATM   28  N11 UNK     0      -7.647   4.909   2.397  1.00  0.00    -0.234 N 
HETATM   29  H35 UNK     0      -9.334   3.629   5.091  1.00  0.00     0.174 HD
HETATM   30  H34 UNK     0      -9.694   3.426   3.285  1.00  0.00     0.174 HD
HETATM   31  H36 UNK     0      -6.801   5.519   2.158  1.00  0.00     0.174 HD
HETATM   32  H37 UNK     0      -8.252   4.501   1.614  1.00  0.00     0.174 HD
ENDBRANCH  24  25
ENDBRANCH  23  24
ENDBRANCH  22  23
ENDBRANCH  21  22
BRANCH  21  33
HETATM   33  C24 UNK     0      -2.722   7.298   6.629  1.00  0.00     0.163 C 
HETATM   34  O6  UNK     0      -3.586   8.157   6.377  1.00  0.00    -0.648 OA
BRANCH  33  35
HETATM   35  O5  UNK     0      -1.719   7.570   7.564  1.00  0.00    -0.775 OA
HETATM   36  H32 UNK     0      -0.802   7.201   7.212  1.00  0.00     0.167 HD
ENDBRANCH  33  35
ENDBRANCH  21  33
ENDBRANCH  19  21
ENDBRANCH  14  17
ENDBRANCH   1  11
TORSDOF 10
ENDMDL
MODEL 9
REMARK VINA RESULT:    -7.034      1.419      1.813
REMARK INTER + INTRA:         -11.975
REMARK INTER:                 -11.220
REMARK INTRA:                  -0.754
REMARK UNBOUND:                -1.033
REMARK  10 active torsions:
REMARK  status: ('A' for Active; 'I' for Inactive)
REMARK    1  A    between atoms: S1_1  and  C19_19 
REMARK    2  A    between atoms: S1_1  and  N7_7 
REMARK    3  A    between atoms: O5_5  and  C24_24 
REMARK    4  A    between atoms: N8_8  and  C18_18 
REMARK       I    between atoms: N8_8  and  C17_17 
REMARK    5  A    between atoms: N9_9  and  C27_27 
REMARK       I    between atoms: N10_10  and  C30_30 
REMARK       I    between atoms: N11_11  and  C30_30 
REMARK    6  A    between atoms: C12_12  and  C17_17 
REMARK    7  A    between atoms: C18_18  and  C20_20 
REMARK    8  A    between atoms: C18_18  and  C24_24 
REMARK    9  A    between atoms: C20_20  and  C21_21 
REMARK   10  A    between atoms: C21_21  and  C27_27 
ROOT
HETATM    1  S1  UNK     0      -4.544   6.545   5.604  1.00  0.00     0.243 S 
HETATM    2  O2  UNK     0      -5.055   7.817   6.161  1.00  0.00    -0.206 OA
HETATM    3  O3  UNK     0      -5.662   5.573   5.542  1.00  0.00    -0.206 OA
ENDROOT
BRANCH   1   4
HETATM    4  C19 UNK     0      -3.269   5.902   6.696  1.00  0.00     0.074 A 
HETATM    5  C23 UNK     0      -2.001   6.550   6.774  1.00  0.00     0.025 A 
HETATM    6  C26 UNK     0      -1.002   6.051   7.661  1.00  0.00     0.008 A 
HETATM    7  C28 UNK     0      -1.275   4.911   8.472  1.00  0.00    -0.062 A 
HETATM    8  C25 UNK     0      -2.542   4.263   8.391  1.00  0.00     0.008 A 
HETATM    9  C29 UNK     0      -0.193   4.373   9.445  1.00  0.00     0.048 C 
HETATM   10  C22 UNK     0      -3.541   4.760   7.504  1.00  0.00     0.025 A 
ENDBRANCH   1   4
BRANCH   1  11
HETATM   11  N7  UNK     0      -3.972   6.821   4.041  1.00  0.00    -0.206 NA
HETATM   12  C16 UNK     0      -5.258   7.231   3.344  1.00  0.00     0.108 C 
HETATM   13  C14 UNK     0      -5.195   7.010   1.783  1.00  0.00     0.029 C 
HETATM   14  C12 UNK     0      -4.865   5.496   1.519  1.00  0.00     0.080 C 
HETATM   15  C13 UNK     0      -3.436   5.208   2.102  1.00  0.00     0.029 C 
HETATM   16  C15 UNK     0      -3.502   5.425   3.665  1.00  0.00     0.108 C 
BRANCH  14  17
HETATM   17  C17 UNK     0      -4.910   5.191  -0.005  1.00  0.00     0.222 C 
HETATM   18  O4  UNK     0      -5.306   6.057  -0.806  1.00  0.00    -0.273 OA
HETATM   19  N8  UNK     0      -4.469   3.926  -0.477  1.00  0.00    -0.346 N 
HETATM   20  H33 UNK     0      -4.115   3.209   0.236  1.00  0.00     0.163 HD
BRANCH  19  21
HETATM   21  C18 UNK     0      -4.478   3.545  -1.941  1.00  0.00     0.182 C 
BRANCH  21  22
HETATM   22  C20 UNK     0      -3.288   2.548  -2.251  1.00  0.00     0.038 C 
BRANCH  22  23
HETATM   23  C21 UNK     0      -2.243   3.227  -3.225  1.00  0.00     0.025 C 
BRANCH  23  24
HETATM   24  C27 UNK     0      -2.257   2.526  -4.637  1.00  0.00     0.169 C 
BRANCH  24  25
HETATM   25  N9  UNK     0      -1.244   1.404  -4.697  1.00  0.00    -0.108 NA
HETATM   26  C30 UNK     0      -0.018   1.655  -5.172  1.00  0.00     0.686 C 
HETATM   27  N10 UNK     0       0.950   0.621  -5.236  1.00  0.00    -0.234 N 
HETATM   28  N11 UNK     0       0.312   2.963  -5.614  1.00  0.00    -0.234 N 
HETATM   29  H35 UNK     0       0.702  -0.366  -4.903  1.00  0.00     0.174 HD
HETATM   30  H34 UNK     0       1.928   0.827  -5.615  1.00  0.00     0.174 HD
HETATM   31  H36 UNK     0      -0.418   3.745  -5.568  1.00  0.00     0.174 HD
HETATM   32  H37 UNK     0       1.292   3.168  -5.995  1.00  0.00     0.174 HD
ENDBRANCH  24  25
ENDBRANCH  23  24
ENDBRANCH  22  23
ENDBRANCH  21  22
BRANCH  21  33
HETATM   33  C24 UNK     0      -5.828   2.857  -2.280  1.00  0.00     0.163 C 
HETATM   34  O6  UNK     0      -6.485   3.221  -3.272  1.00  0.00    -0.648 OA
BRANCH  33  35
HETATM   35  O5  UNK     0      -6.302   1.817  -1.473  1.00  0.00    -0.775 OA
HETATM   36  H32 UNK     0      -5.522   1.142  -1.277  1.00  0.00     0.167 HD
ENDBRANCH  33  35
ENDBRANCH  21  33
ENDBRANCH  19  21
ENDBRANCH  14  17
ENDBRANCH   1  11
TORSDOF 10
ENDMDL
