MODEL 1
REMARK VINA RESULT:    -5.639      0.000      0.000
REMARK INTER + INTRA:          -6.849
REMARK INTER:                  -6.957
REMARK INTRA:                   0.108
REMARK UNBOUND:                 0.108
REMARK  4 active torsions:
REMARK  status: ('A' for Active; 'I' for Inactive)
REMARK    1  A    between atoms: S2_2  and  C8_8 
REMARK    2  A    between atoms: S2_2  and  N6_6 
REMARK       I    between atoms: N6_6  and  C11_11 
REMARK       I    between atoms: N7_7  and  C11_11 
REMARK    3  A    between atoms: N7_7  and  C15_15 
REMARK    4  A    between atoms: C15_15  and  C16_16 
ROOT
HETATM    1 CL1  UNK     0      -6.298   1.642   9.112  1.00  0.00    -0.084 Cl
HETATM    2  C8  UNK     0      -2.300   4.133   8.869  1.00  0.00     0.080 A 
HETATM    3  C9  UNK     0      -3.098   3.919   7.674  1.00  0.00     0.027 A 
HETATM    4  C10 UNK     0      -2.736   3.580  10.142  1.00  0.00     0.027 A 
HETATM    5  C12 UNK     0      -4.767   2.596   9.019  1.00  0.00     0.034 A 
HETATM    6  C13 UNK     0      -4.331   3.152   7.747  1.00  0.00     0.025 A 
HETATM    7  C14 UNK     0      -3.969   2.812  10.216  1.00  0.00     0.025 A 
ENDROOT
BRANCH   2   8
HETATM    8  S2  UNK     0      -0.744   5.099   8.765  1.00  0.00     0.266 S 
HETATM    9  O4  UNK     0       0.424   4.151   8.620  1.00  0.00    -0.200 OA
HETATM   10  O3  UNK     0      -0.788   6.005   7.556  1.00  0.00    -0.200 OA
BRANCH   8  11
HETATM   11  N6  UNK     0      -0.542   6.038  10.191  1.00  0.00    -0.232 N 
HETATM   12  C11 UNK     0       0.777   6.548  10.499  1.00  0.00     0.329 C 
HETATM   13  O5  UNK     0       1.748   6.293   9.724  1.00  0.00    -0.246 OA
HETATM   14  N7  UNK     0       0.998   7.342  11.690  1.00  0.00    -0.342 N 
HETATM   15  H19 UNK     0       0.186   7.572  12.348  1.00  0.00     0.164 HD
HETATM   16  H18 UNK     0      -1.372   6.240  10.837  1.00  0.00     0.183 HD
BRANCH  14  17
HETATM   17  C15 UNK     0       2.421   7.849  11.996  1.00  0.00     0.124 C 
BRANCH  17  18
HETATM   18  C16 UNK     0       2.647   9.285  11.318  1.00  0.00     0.015 C 
HETATM   19  C17 UNK     0       3.566  10.187  12.279  1.00  0.00     0.006 C 
ENDBRANCH  17  18
ENDBRANCH  14  17
ENDBRANCH   8  11
ENDBRANCH   2   8
TORSDOF 4
ENDMDL
