MODEL 1
REMARK VINA RESULT:    -5.639      0.000      0.000
REMARK INTER + INTRA:          -6.849
REMARK INTER:                  -6.957
REMARK INTRA:                   0.108
REMARK UNBOUND:                 0.108
REMARK  4 active torsions:
REMARK  status: ('A' for Active; 'I' for Inactive)
REMARK    1  A    between atoms: S2_2  and  C8_8 
REMARK    2  A    between atoms: S2_2  and  N6_6 
REMARK       I    between atoms: N6_6  and  C11_11 
REMARK       I    between atoms: N7_7  and  C11_11 
REMARK    3  A    between atoms: N7_7  and  C15_15 
REMARK    4  A    between atoms: C15_15  and  C16_16 
ROOT
HETATM    1 CL1  UNK     0      -6.298   1.642   9.112  1.00  0.00    -0.084 Cl
HETATM    2  C8  UNK     0      -2.300   4.133   8.869  1.00  0.00     0.080 A 
HETATM    3  C9  UNK     0      -3.098   3.919   7.674  1.00  0.00     0.027 A 
HETATM    4  C10 UNK     0      -2.736   3.580  10.142  1.00  0.00     0.027 A 
HETATM    5  C12 UNK     0      -4.767   2.596   9.019  1.00  0.00     0.034 A 
HETATM    6  C13 UNK     0      -4.331   3.152   7.747  1.00  0.00     0.025 A 
HETATM    7  C14 UNK     0      -3.969   2.812  10.216  1.00  0.00     0.025 A 
ENDROOT
BRANCH   2   8
HETATM    8  S2  UNK     0      -0.744   5.099   8.765  1.00  0.00     0.266 S 
HETATM    9  O4  UNK     0       0.424   4.151   8.620  1.00  0.00    -0.200 OA
HETATM   10  O3  UNK     0      -0.788   6.005   7.556  1.00  0.00    -0.200 OA
BRANCH   8  11
HETATM   11  N6  UNK     0      -0.542   6.038  10.191  1.00  0.00    -0.232 N 
HETATM   12  C11 UNK     0       0.777   6.548  10.499  1.00  0.00     0.329 C 
HETATM   13  O5  UNK     0       1.748   6.293   9.724  1.00  0.00    -0.246 OA
HETATM   14  N7  UNK     0       0.998   7.342  11.690  1.00  0.00    -0.342 N 
HETATM   15  H19 UNK     0       0.186   7.572  12.348  1.00  0.00     0.164 HD
HETATM   16  H18 UNK     0      -1.372   6.240  10.837  1.00  0.00     0.183 HD
BRANCH  14  17
HETATM   17  C15 UNK     0       2.421   7.849  11.996  1.00  0.00     0.124 C 
BRANCH  17  18
HETATM   18  C16 UNK     0       2.647   9.285  11.318  1.00  0.00     0.015 C 
HETATM   19  C17 UNK     0       3.566  10.187  12.279  1.00  0.00     0.006 C 
ENDBRANCH  17  18
ENDBRANCH  14  17
ENDBRANCH   8  11
ENDBRANCH   2   8
TORSDOF 4
ENDMDL
MODEL 2
REMARK VINA RESULT:    -5.621      2.014      2.692
REMARK INTER + INTRA:          -6.828
REMARK INTER:                  -6.792
REMARK INTRA:                  -0.036
REMARK UNBOUND:                 0.108
REMARK  4 active torsions:
REMARK  status: ('A' for Active; 'I' for Inactive)
REMARK    1  A    between atoms: S2_2  and  C8_8 
REMARK    2  A    between atoms: S2_2  and  N6_6 
REMARK       I    between atoms: N6_6  and  C11_11 
REMARK       I    between atoms: N7_7  and  C11_11 
REMARK    3  A    between atoms: N7_7  and  C15_15 
REMARK    4  A    between atoms: C15_15  and  C16_16 
ROOT
HETATM    1 CL1  UNK     0      -4.326   3.880   6.775  1.00  0.00    -0.084 Cl
HETATM    2  C8  UNK     0      -0.759   5.434   9.440  1.00  0.00     0.080 A 
HETATM    3  C9  UNK     0      -0.919   5.923   8.081  1.00  0.00     0.027 A 
HETATM    4  C10 UNK     0      -1.702   4.466   9.979  1.00  0.00     0.027 A 
HETATM    5  C12 UNK     0      -2.961   4.475   7.796  1.00  0.00     0.034 A 
HETATM    6  C13 UNK     0      -2.019   5.445   7.258  1.00  0.00     0.025 A 
HETATM    7  C14 UNK     0      -2.801   3.987   9.157  1.00  0.00     0.025 A 
ENDROOT
BRANCH   2   8
HETATM    8  S2  UNK     0       0.634   6.040  10.468  1.00  0.00     0.266 S 
HETATM    9  O4  UNK     0       0.668   5.269  11.768  1.00  0.00    -0.200 OA
HETATM   10  O3  UNK     0       1.939   5.820   9.737  1.00  0.00    -0.200 OA
BRANCH   8  11
HETATM   11  N6  UNK     0       0.428   7.714  10.804  1.00  0.00    -0.232 N 
HETATM   12  C11 UNK     0       1.393   8.369  11.661  1.00  0.00     0.329 C 
HETATM   13  O5  UNK     0       2.359   7.704  12.146  1.00  0.00    -0.246 OA
HETATM   14  N7  UNK     0       1.261   9.776  11.975  1.00  0.00    -0.342 N 
HETATM   15  H19 UNK     0       0.457  10.351  11.565  1.00  0.00     0.164 HD
HETATM   16  H18 UNK     0      -0.395   8.259  10.389  1.00  0.00     0.183 HD
BRANCH  14  17
HETATM   17  C15 UNK     0       2.297  10.434  12.909  1.00  0.00     0.124 C 
BRANCH  17  18
HETATM   18  C16 UNK     0       3.482  11.080  12.043  1.00  0.00     0.015 C 
HETATM   19  C17 UNK     0       3.574  12.651  12.361  1.00  0.00     0.006 C 
ENDBRANCH  17  18
ENDBRANCH  14  17
ENDBRANCH   8  11
ENDBRANCH   2   8
TORSDOF 4
ENDMDL
MODEL 3
REMARK VINA RESULT:    -5.324     10.847     12.332
REMARK INTER + INTRA:          -6.462
REMARK INTER:                  -6.411
REMARK INTRA:                  -0.051
REMARK UNBOUND:                 0.108
REMARK  4 active torsions:
REMARK  status: ('A' for Active; 'I' for Inactive)
REMARK    1  A    between atoms: S2_2  and  C8_8 
REMARK    2  A    between atoms: S2_2  and  N6_6 
REMARK       I    between atoms: N6_6  and  C11_11 
REMARK       I    between atoms: N7_7  and  C11_11 
REMARK    3  A    between atoms: N7_7  and  C15_15 
REMARK    4  A    between atoms: C15_15  and  C16_16 
ROOT
HETATM    1 CL1  UNK     0       2.261   4.819   2.452  1.00  0.00    -0.084 Cl
HETATM    2  C8  UNK     0      -0.483   3.672  -1.209  1.00  0.00     0.080 A 
HETATM    3  C9  UNK     0       0.534   2.744  -0.743  1.00  0.00     0.027 A 
HETATM    4  C10 UNK     0      -0.655   4.955  -0.544  1.00  0.00     0.027 A 
HETATM    5  C12 UNK     0       1.210   4.379   1.051  1.00  0.00     0.034 A 
HETATM    6  C13 UNK     0       1.380   3.096   0.387  1.00  0.00     0.025 A 
HETATM    7  C14 UNK     0       0.191   5.307   0.584  1.00  0.00     0.025 A 
ENDROOT
BRANCH   2   8
HETATM    8  S2  UNK     0      -1.542   3.220  -2.637  1.00  0.00     0.266 S 
HETATM    9  O4  UNK     0      -0.737   3.331  -3.911  1.00  0.00    -0.200 OA
HETATM   10  O3  UNK     0      -2.019   1.794  -2.485  1.00  0.00    -0.200 OA
BRANCH   8  11
HETATM   11  N6  UNK     0      -2.892   4.282  -2.722  1.00  0.00    -0.232 N 
HETATM   12  C11 UNK     0      -3.927   4.163  -1.717  1.00  0.00     0.329 C 
HETATM   13  O5  UNK     0      -3.822   3.286  -0.806  1.00  0.00    -0.246 OA
HETATM   14  N7  UNK     0      -5.084   5.033  -1.748  1.00  0.00    -0.342 N 
HETATM   15  H19 UNK     0      -5.180   5.783  -2.505  1.00  0.00     0.164 HD
HETATM   16  H18 UNK     0      -2.966   5.013  -3.500  1.00  0.00     0.183 HD
BRANCH  14  17
HETATM   17  C15 UNK     0      -6.176   4.862  -0.673  1.00  0.00     0.124 C 
BRANCH  17  18
HETATM   18  C16 UNK     0      -5.928   5.896   0.528  1.00  0.00     0.015 C 
HETATM   19  C17 UNK     0      -7.334   6.261   1.212  1.00  0.00     0.006 C 
ENDBRANCH  17  18
ENDBRANCH  14  17
ENDBRANCH   8  11
ENDBRANCH   2   8
TORSDOF 4
ENDMDL
MODEL 4
REMARK VINA RESULT:    -5.260      4.421      5.737
REMARK INTER + INTRA:          -6.383
REMARK INTER:                  -6.568
REMARK INTRA:                   0.185
REMARK UNBOUND:                 0.108
REMARK  4 active torsions:
REMARK  status: ('A' for Active; 'I' for Inactive)
REMARK    1  A    between atoms: S2_2  and  C8_8 
REMARK    2  A    between atoms: S2_2  and  N6_6 
REMARK       I    between atoms: N6_6  and  C11_11 
REMARK       I    between atoms: N7_7  and  C11_11 
REMARK    3  A    between atoms: N7_7  and  C15_15 
REMARK    4  A    between atoms: C15_15  and  C16_16 
ROOT
HETATM    1 CL1  UNK     0     -10.036   7.366   8.228  1.00  0.00    -0.084 Cl
HETATM    2  C8  UNK     0      -6.153   6.097   5.872  1.00  0.00     0.080 A 
HETATM    3  C9  UNK     0      -6.110   7.219   6.795  1.00  0.00     0.027 A 
HETATM    4  C10 UNK     0      -7.394   5.365   5.676  1.00  0.00     0.027 A 
HETATM    5  C12 UNK     0      -8.549   6.880   7.326  1.00  0.00     0.034 A 
HETATM    6  C13 UNK     0      -7.306   7.611   7.523  1.00  0.00     0.025 A 
HETATM    7  C14 UNK     0      -8.591   5.757   6.403  1.00  0.00     0.025 A 
ENDROOT
BRANCH   2   8
HETATM    8  S2  UNK     0      -4.639   5.614   4.955  1.00  0.00     0.266 S 
HETATM    9  O4  UNK     0      -5.024   4.759   3.769  1.00  0.00    -0.200 OA
HETATM   10  O3  UNK     0      -3.931   6.851   4.453  1.00  0.00    -0.200 OA
BRANCH   8  11
HETATM   11  N6  UNK     0      -3.592   4.719   5.985  1.00  0.00    -0.232 N 
HETATM   12  C11 UNK     0      -2.632   5.444   6.789  1.00  0.00     0.329 C 
HETATM   13  O5  UNK     0      -2.577   6.710   6.717  1.00  0.00    -0.246 OA
HETATM   14  N7  UNK     0      -1.728   4.735   7.671  1.00  0.00    -0.342 N 
HETATM   15  H19 UNK     0      -1.770   3.669   7.748  1.00  0.00     0.164 HD
HETATM   16  H18 UNK     0      -3.650   3.651   6.031  1.00  0.00     0.183 HD
BRANCH  14  17
HETATM   17  C15 UNK     0      -0.703   5.541   8.495  1.00  0.00     0.124 C 
BRANCH  17  18
HETATM   18  C16 UNK     0       0.330   4.543   9.208  1.00  0.00     0.015 C 
HETATM   19  C17 UNK     0       1.485   5.399   9.925  1.00  0.00     0.006 C 
ENDBRANCH  17  18
ENDBRANCH  14  17
ENDBRANCH   8  11
ENDBRANCH   2   8
TORSDOF 4
ENDMDL
MODEL 5
REMARK VINA RESULT:    -5.236     13.534     14.750
REMARK INTER + INTRA:          -6.352
REMARK INTER:                  -6.274
REMARK INTRA:                  -0.078
REMARK UNBOUND:                 0.108
REMARK  4 active torsions:
REMARK  status: ('A' for Active; 'I' for Inactive)
REMARK    1  A    between atoms: S2_2  and  C8_8 
REMARK    2  A    between atoms: S2_2  and  N6_6 
REMARK       I    between atoms: N6_6  and  C11_11 
REMARK       I    between atoms: N7_7  and  C11_11 
REMARK    3  A    between atoms: N7_7  and  C15_15 
REMARK    4  A    between atoms: C15_15  and  C16_16 
ROOT
HETATM    1 CL1  UNK     0       7.372   6.987  -3.682  1.00  0.00    -0.084 Cl
HETATM    2  C8  UNK     0       6.811  11.392  -2.093  1.00  0.00     0.080 A 
HETATM    3  C9  UNK     0       8.003  10.637  -1.741  1.00  0.00     0.027 A 
HETATM    4  C10 UNK     0       5.792  10.788  -2.938  1.00  0.00     0.027 A 
HETATM    5  C12 UNK     0       7.158   8.674  -3.074  1.00  0.00     0.034 A 
HETATM    6  C13 UNK     0       8.177   9.279  -2.231  1.00  0.00     0.025 A 
HETATM    7  C14 UNK     0       5.966   9.429  -3.427  1.00  0.00     0.025 A 
ENDROOT
BRANCH   2   8
HETATM    8  S2  UNK     0       6.599  13.103  -1.467  1.00  0.00     0.266 S 
HETATM    9  O4  UNK     0       7.895  13.862  -1.636  1.00  0.00    -0.200 OA
HETATM   10  O3  UNK     0       5.518  13.803  -2.257  1.00  0.00    -0.200 OA
BRANCH   8  11
HETATM   11  N6  UNK     0       6.174  13.067   0.199  1.00  0.00    -0.232 N 
HETATM   12  C11 UNK     0       4.858  12.589   0.565  1.00  0.00     0.329 C 
HETATM   13  O5  UNK     0       4.050  12.215  -0.339  1.00  0.00    -0.246 OA
HETATM   14  N7  UNK     0       4.453  12.542   1.954  1.00  0.00    -0.342 N 
HETATM   15  H19 UNK     0       5.128  12.846   2.727  1.00  0.00     0.164 HD
HETATM   16  H18 UNK     0       6.867  13.390   0.949  1.00  0.00     0.183 HD
BRANCH  14  17
HETATM   17  C15 UNK     0       3.034  12.047   2.303  1.00  0.00     0.124 C 
BRANCH  17  18
HETATM   18  C16 UNK     0       3.122  10.680   3.136  1.00  0.00     0.015 C 
HETATM   19  C17 UNK     0       1.663  10.012   3.214  1.00  0.00     0.006 C 
ENDBRANCH  17  18
ENDBRANCH  14  17
ENDBRANCH   8  11
ENDBRANCH   2   8
TORSDOF 4
ENDMDL
MODEL 6
REMARK VINA RESULT:    -5.229      8.397     11.030
REMARK INTER + INTRA:          -6.344
REMARK INTER:                  -6.490
REMARK INTRA:                   0.146
REMARK UNBOUND:                 0.108
REMARK  4 active torsions:
REMARK  status: ('A' for Active; 'I' for Inactive)
REMARK    1  A    between atoms: S2_2  and  C8_8 
REMARK    2  A    between atoms: S2_2  and  N6_6 
REMARK       I    between atoms: N6_6  and  C11_11 
REMARK       I    between atoms: N7_7  and  C11_11 
REMARK    3  A    between atoms: N7_7  and  C15_15 
REMARK    4  A    between atoms: C15_15  and  C16_16 
ROOT
HETATM    1 CL1  UNK     0      -4.882  11.906   4.072  1.00  0.00    -0.084 Cl
HETATM    2  C8  UNK     0      -4.418   7.266   3.369  1.00  0.00     0.080 A 
HETATM    3  C9  UNK     0      -4.887   7.764   4.651  1.00  0.00     0.027 A 
HETATM    4  C10 UNK     0      -4.093   8.200   2.301  1.00  0.00     0.027 A 
HETATM    5  C12 UNK     0      -4.705  10.129   3.802  1.00  0.00     0.034 A 
HETATM    6  C13 UNK     0      -5.032   9.195   4.868  1.00  0.00     0.025 A 
HETATM    7  C14 UNK     0      -4.236   9.630   2.519  1.00  0.00     0.025 A 
ENDROOT
BRANCH   2   8
HETATM    8  S2  UNK     0      -4.236   5.460   3.105  1.00  0.00     0.266 S 
HETATM    9  O4  UNK     0      -2.873   5.176   2.516  1.00  0.00    -0.200 OA
HETATM   10  O3  UNK     0      -4.354   4.738   4.428  1.00  0.00    -0.200 OA
BRANCH   8  11
HETATM   11  N6  UNK     0      -5.451   4.901   2.024  1.00  0.00    -0.232 N 
HETATM   12  C11 UNK     0      -5.214   5.018   0.601  1.00  0.00     0.329 C 
HETATM   13  O5  UNK     0      -4.131   5.529   0.183  1.00  0.00    -0.246 OA
HETATM   14  N7  UNK     0      -6.208   4.564  -0.349  1.00  0.00    -0.342 N 
HETATM   15  H19 UNK     0      -7.122   4.123  -0.010  1.00  0.00     0.164 HD
HETATM   16  H18 UNK     0      -6.361   4.476   2.395  1.00  0.00     0.183 HD
BRANCH  14  17
HETATM   17  C15 UNK     0      -5.929   4.726  -1.857  1.00  0.00     0.124 C 
BRANCH  17  18
HETATM   18  C16 UNK     0      -6.173   6.249  -2.297  1.00  0.00     0.015 C 
HETATM   19  C17 UNK     0      -4.940   6.744  -3.199  1.00  0.00     0.006 C 
ENDBRANCH  17  18
ENDBRANCH  14  17
ENDBRANCH   8  11
ENDBRANCH   2   8
TORSDOF 4
ENDMDL
MODEL 7
REMARK VINA RESULT:    -5.162     11.813     13.640
REMARK INTER + INTRA:          -6.261
REMARK INTER:                  -6.182
REMARK INTRA:                  -0.079
REMARK UNBOUND:                 0.108
REMARK  4 active torsions:
REMARK  status: ('A' for Active; 'I' for Inactive)
REMARK    1  A    between atoms: S2_2  and  C8_8 
REMARK    2  A    between atoms: S2_2  and  N6_6 
REMARK       I    between atoms: N6_6  and  C11_11 
REMARK       I    between atoms: N7_7  and  C11_11 
REMARK    3  A    between atoms: N7_7  and  C15_15 
REMARK    4  A    between atoms: C15_15  and  C16_16 
ROOT
HETATM    1 CL1  UNK     0      -5.924   5.958  -7.773  1.00  0.00    -0.084 Cl
HETATM    2  C8  UNK     0      -5.516   4.334  -3.364  1.00  0.00     0.080 A 
HETATM    3  C9  UNK     0      -5.952   3.446  -4.429  1.00  0.00     0.027 A 
HETATM    4  C10 UNK     0      -5.203   5.724  -3.659  1.00  0.00     0.027 A 
HETATM    5  C12 UNK     0      -5.767   5.336  -6.085  1.00  0.00     0.034 A 
HETATM    6  C13 UNK     0      -6.077   3.946  -5.789  1.00  0.00     0.025 A 
HETATM    7  C14 UNK     0      -5.330   6.224  -5.019  1.00  0.00     0.025 A 
ENDROOT
BRANCH   2   8
HETATM    8  S2  UNK     0      -5.365   3.695  -1.651  1.00  0.00     0.266 S 
HETATM    9  O4  UNK     0      -6.386   4.380  -0.771  1.00  0.00    -0.200 OA
HETATM   10  O3  UNK     0      -5.630   2.207  -1.638  1.00  0.00    -0.200 OA
BRANCH   8  11
HETATM   11  N6  UNK     0      -3.787   4.013  -1.046  1.00  0.00    -0.232 N 
HETATM   12  C11 UNK     0      -2.674   3.270  -1.598  1.00  0.00     0.329 C 
HETATM   13  O5  UNK     0      -2.882   2.406  -2.504  1.00  0.00    -0.246 OA
HETATM   14  N7  UNK     0      -1.328   3.501  -1.119  1.00  0.00    -0.342 N 
HETATM   15  H19 UNK     0      -1.138   4.233  -0.363  1.00  0.00     0.164 HD
HETATM   16  H18 UNK     0      -3.631   4.743  -0.278  1.00  0.00     0.183 HD
BRANCH  14  17
HETATM   17  C15 UNK     0      -0.171   2.675  -1.717  1.00  0.00     0.124 C 
BRANCH  17  18
HETATM   18  C16 UNK     0       0.938   2.394  -0.592  1.00  0.00     0.015 C 
HETATM   19  C17 UNK     0       1.100   3.699   0.329  1.00  0.00     0.006 C 
ENDBRANCH  17  18
ENDBRANCH  14  17
ENDBRANCH   8  11
ENDBRANCH   2   8
TORSDOF 4
ENDMDL
MODEL 8
REMARK VINA RESULT:    -5.149     12.184     14.678
REMARK INTER + INTRA:          -6.246
REMARK INTER:                  -6.285
REMARK INTRA:                   0.039
REMARK UNBOUND:                 0.108
REMARK  4 active torsions:
REMARK  status: ('A' for Active; 'I' for Inactive)
REMARK    1  A    between atoms: S2_2  and  C8_8 
REMARK    2  A    between atoms: S2_2  and  N6_6 
REMARK       I    between atoms: N6_6  and  C11_11 
REMARK       I    between atoms: N7_7  and  C11_11 
REMARK    3  A    between atoms: N7_7  and  C15_15 
REMARK    4  A    between atoms: C15_15  and  C16_16 
ROOT
HETATM    1 CL1  UNK     0     -13.258  -3.650   0.165  1.00  0.00    -0.084 Cl
HETATM    2  C8  UNK     0     -13.952   0.888   1.246  1.00  0.00     0.080 A 
HETATM    3  C9  UNK     0     -12.600   0.373   1.101  1.00  0.00     0.027 A 
HETATM    4  C10 UNK     0     -15.091   0.003   1.055  1.00  0.00     0.027 A 
HETATM    5  C12 UNK     0     -13.523  -1.912   0.579  1.00  0.00     0.034 A 
HETATM    6  C13 UNK     0     -12.385  -1.026   0.767  1.00  0.00     0.025 A 
HETATM    7  C14 UNK     0     -14.876  -1.396   0.722  1.00  0.00     0.025 A 
ENDROOT
BRANCH   2   8
HETATM    8  S2  UNK     0     -14.212   2.653   1.671  1.00  0.00     0.266 S 
HETATM    9  O4  UNK     0     -14.694   3.397   0.446  1.00  0.00    -0.200 OA
HETATM   10  O3  UNK     0     -15.261   2.766   2.753  1.00  0.00    -0.200 OA
BRANCH   8  11
HETATM   11  N6  UNK     0     -12.736   3.348   2.214  1.00  0.00    -0.232 N 
HETATM   12  C11 UNK     0     -12.332   3.124   3.586  1.00  0.00     0.329 C 
HETATM   13  O5  UNK     0     -13.068   2.432   4.354  1.00  0.00    -0.246 OA
HETATM   14  N7  UNK     0     -11.099   3.690   4.090  1.00  0.00    -0.342 N 
HETATM   15  H19 UNK     0     -10.464   4.268   3.450  1.00  0.00     0.164 HD
HETATM   16  H18 UNK     0     -12.129   3.932   1.553  1.00  0.00     0.183 HD
BRANCH  14  17
HETATM   17  C15 UNK     0     -10.713   3.448   5.563  1.00  0.00     0.124 C 
BRANCH  17  18
HETATM   18  C16 UNK     0      -9.262   4.065   5.857  1.00  0.00     0.015 C 
HETATM   19  C17 UNK     0      -8.403   4.069   4.500  1.00  0.00     0.006 C 
ENDBRANCH  17  18
ENDBRANCH  14  17
ENDBRANCH   8  11
ENDBRANCH   2   8
TORSDOF 4
ENDMDL
MODEL 9
REMARK VINA RESULT:    -5.125      4.472      8.591
REMARK INTER + INTRA:          -6.216
REMARK INTER:                  -6.240
REMARK INTRA:                   0.023
REMARK UNBOUND:                 0.108
REMARK  4 active torsions:
REMARK  status: ('A' for Active; 'I' for Inactive)
REMARK    1  A    between atoms: S2_2  and  C8_8 
REMARK    2  A    between atoms: S2_2  and  N6_6 
REMARK       I    between atoms: N6_6  and  C11_11 
REMARK       I    between atoms: N7_7  and  C11_11 
REMARK    3  A    between atoms: N7_7  and  C15_15 
REMARK    4  A    between atoms: C15_15  and  C16_16 
ROOT
HETATM    1 CL1  UNK     0       4.782  13.328  11.905  1.00  0.00    -0.084 Cl
HETATM    2  C8  UNK     0       2.605   9.147  12.067  1.00  0.00     0.080 A 
HETATM    3  C9  UNK     0       1.902  10.350  12.480  1.00  0.00     0.027 A 
HETATM    4  C10 UNK     0       3.981   9.233  11.601  1.00  0.00     0.027 A 
HETATM    5  C12 UNK     0       3.948  11.727  11.966  1.00  0.00     0.034 A 
HETATM    6  C13 UNK     0       2.572  11.640  12.430  1.00  0.00     0.025 A 
HETATM    7  C14 UNK     0       4.651  10.523  11.552  1.00  0.00     0.025 A 
ENDROOT
BRANCH   2   8
HETATM    8  S2  UNK     0       1.753   7.524  12.138  1.00  0.00     0.266 S 
HETATM    9  O4  UNK     0       2.783   6.418  12.132  1.00  0.00    -0.200 OA
HETATM   10  O3  UNK     0       0.944   7.430  13.411  1.00  0.00    -0.200 OA
BRANCH   8  11
HETATM   11  N6  UNK     0       0.720   7.346  10.775  1.00  0.00    -0.232 N 
HETATM   12  C11 UNK     0       0.096   6.060  10.546  1.00  0.00     0.329 C 
HETATM   13  O5  UNK     0       0.324   5.099  11.342  1.00  0.00    -0.246 OA
HETATM   14  N7  UNK     0      -0.780   5.861   9.410  1.00  0.00    -0.342 N 
HETATM   15  H19 UNK     0      -0.988   6.665   8.736  1.00  0.00     0.164 HD
HETATM   16  H18 UNK     0       0.542   8.167  10.111  1.00  0.00     0.183 HD
BRANCH  14  17
HETATM   17  C15 UNK     0      -1.409   4.470   9.187  1.00  0.00     0.124 C 
BRANCH  17  18
HETATM   18  C16 UNK     0      -2.566   4.565   8.080  1.00  0.00     0.015 C 
HETATM   19  C17 UNK     0      -3.641   3.400   8.337  1.00  0.00     0.006 C 
ENDBRANCH  17  18
ENDBRANCH  14  17
ENDBRANCH   8  11
ENDBRANCH   2   8
TORSDOF 4
ENDMDL
