MODEL 9
REMARK VINA RESULT:    -5.537      4.269      4.968
REMARK INTER + INTRA:          -6.300
REMARK INTER:                  -6.203
REMARK INTRA:                  -0.097
REMARK UNBOUND:                 0.046
REMARK  4 active torsions:
REMARK  status: ('A' for Active; 'I' for Inactive)
REMARK    1  A    between atoms: S2_2  and  O5_5 
REMARK    2  A    between atoms: S2_2  and  O4_4 
REMARK    3  A    between atoms: S3_3  and  C13_13 
REMARK    4  A    between atoms: S3_3  and  N10_10 
ROOT
HETATM    1 CL1  UNK     0      -5.666   5.749  -2.294  1.00  0.00    -0.083 Cl
HETATM    2  S2  UNK     0       0.178   2.526  -1.502  1.00  0.00     0.106 S 
HETATM    3  N8  UNK     0      -0.763   5.033   0.153  1.00  0.00    -0.349 N 
HETATM    4  N9  UNK     0       1.143   3.303  -0.227  1.00  0.00    -0.180 NA
HETATM    5  C11 UNK     0      -1.462   3.410  -1.751  1.00  0.00     0.080 A 
HETATM    6  C12 UNK     0      -1.773   4.583  -0.891  1.00  0.00     0.056 A 
HETATM    7  C13 UNK     0      -3.738   3.673  -2.953  1.00  0.00     0.097 A 
HETATM    8  C14 UNK     0      -2.439   2.948  -2.785  1.00  0.00     0.052 A 
HETATM    9  C15 UNK     0      -3.070   5.309  -1.055  1.00  0.00     0.056 A 
HETATM   10  C16 UNK     0      -4.054   4.852  -2.087  1.00  0.00     0.059 A 
HETATM   11  C17 UNK     0       0.577   4.420   0.426  1.00  0.00     0.219 A 
HETATM   12  H18 UNK     0      -1.038   5.875   0.754  1.00  0.00     0.166 HD
ENDROOT
BRANCH   7  13
HETATM   13  S3  UNK     0      -4.981   3.097  -4.252  1.00  0.00     0.241 S 
HETATM   14  O7  UNK     0      -5.379   4.295  -5.160  1.00  0.00    -0.206 OA
HETATM   15  O6  UNK     0      -6.260   2.558  -3.549  1.00  0.00    -0.206 OA
BRANCH  13  16
HETATM   16  N10 UNK     0      -4.254   1.819  -5.237  1.00  0.00    -0.225 NA
HETATM   17  H19 UNK     0      -3.791   1.096  -4.599  1.00  0.00     0.136 HD
HETATM   18  H20 UNK     0      -3.518   2.244  -5.887  1.00  0.00     0.136 HD
ENDBRANCH  13  16
ENDBRANCH   7  13
BRANCH   2  19
HETATM   19  O5  UNK     0      -0.100   1.049  -1.098  1.00  0.00    -0.307 OA
HETATM   20  H8  UNK     0       0.771   0.628  -0.690  1.00  0.00     0.230 HD
ENDBRANCH   2  19
BRANCH   2  21
HETATM   21  O4  UNK     0       0.984   2.531  -2.832  1.00  0.00    -0.307 OA
HETATM   22  H7  UNK     0       0.401   2.958  -3.594  1.00  0.00     0.230 HD
ENDBRANCH   2  21
TORSDOF 4
ENDMDL
