MODEL 1
REMARK VINA RESULT:    -6.074      0.000      0.000
REMARK INTER + INTRA:          -6.916
REMARK INTER:                  -6.962
REMARK INTRA:                   0.046
REMARK UNBOUND:                 0.046
REMARK  4 active torsions:
REMARK  status: ('A' for Active; 'I' for Inactive)
REMARK    1  A    between atoms: S2_2  and  O5_5 
REMARK    2  A    between atoms: S2_2  and  O4_4 
REMARK    3  A    between atoms: S3_3  and  C13_13 
REMARK    4  A    between atoms: S3_3  and  N10_10 
ROOT
HETATM    1 CL1  UNK     0      -6.323   5.596  -2.741  1.00  0.00    -0.083 Cl
HETATM    2  S2  UNK     0      -3.368   5.661   3.295  1.00  0.00     0.106 S 
HETATM    3  N8  UNK     0      -4.951   8.060   2.011  1.00  0.00    -0.349 N 
HETATM    4  N9  UNK     0      -3.587   7.245   4.072  1.00  0.00    -0.180 NA
HETATM    5  C11 UNK     0      -4.179   5.615   1.600  1.00  0.00     0.080 A 
HETATM    6  C12 UNK     0      -4.898   6.826   1.124  1.00  0.00     0.056 A 
HETATM    7  C13 UNK     0      -4.775   4.385  -0.597  1.00  0.00     0.097 A 
HETATM    8  C14 UNK     0      -4.113   4.388   0.745  1.00  0.00     0.052 A 
HETATM    9  C15 UNK     0      -5.562   6.826  -0.216  1.00  0.00     0.056 A 
HETATM   10  C16 UNK     0      -5.500   5.603  -1.077  1.00  0.00     0.059 A 
HETATM   11  C17 UNK     0      -4.328   8.219   3.365  1.00  0.00     0.219 A 
HETATM   12  H18 UNK     0      -5.490   8.903   1.629  1.00  0.00     0.166 HD
ENDROOT
BRANCH   7  13
HETATM   13  S3  UNK     0      -4.701   2.842  -1.683  1.00  0.00     0.241 S 
HETATM   14  O7  UNK     0      -3.532   1.930  -1.214  1.00  0.00    -0.206 OA
HETATM   15  O6  UNK     0      -4.449   3.256  -3.161  1.00  0.00    -0.206 OA
BRANCH  13  16
HETATM   16  N10 UNK     0      -6.230   1.960  -1.558  1.00  0.00    -0.225 NA
HETATM   17  H19 UNK     0      -6.513   1.597  -2.524  1.00  0.00     0.136 HD
HETATM   18  H20 UNK     0      -6.991   2.615  -1.188  1.00  0.00     0.136 HD
ENDBRANCH  13  16
ENDBRANCH   7  13
BRANCH   2  19
HETATM   19  O5  UNK     0      -4.008   4.564   4.192  1.00  0.00    -0.307 OA
HETATM   20  H8  UNK     0      -3.873   3.623   3.745  1.00  0.00     0.230 HD
ENDBRANCH   2  19
BRANCH   2  21
HETATM   21  O4  UNK     0      -1.847   5.363   3.157  1.00  0.00    -0.307 OA
HETATM   22  H7  UNK     0      -1.573   5.402   2.144  1.00  0.00     0.230 HD
ENDBRANCH   2  21
TORSDOF 4
ENDMDL
MODEL 2
REMARK VINA RESULT:    -5.963     14.499     16.566
REMARK INTER + INTRA:          -6.788
REMARK INTER:                  -7.196
REMARK INTRA:                   0.408
REMARK UNBOUND:                 0.046
REMARK  4 active torsions:
REMARK  status: ('A' for Active; 'I' for Inactive)
REMARK    1  A    between atoms: S2_2  and  O5_5 
REMARK    2  A    between atoms: S2_2  and  O4_4 
REMARK    3  A    between atoms: S3_3  and  C13_13 
REMARK    4  A    between atoms: S3_3  and  N10_10 
ROOT
HETATM    1 CL1  UNK     0      -1.275 -12.904  -0.150  1.00  0.00    -0.083 Cl
HETATM    2  S2  UNK     0      -6.224  -8.747  -1.994  1.00  0.00     0.106 S 
HETATM    3  N8  UNK     0      -4.649  -8.617   0.729  1.00  0.00    -0.349 N 
HETATM    4  N9  UNK     0      -6.542  -7.559  -0.710  1.00  0.00    -0.180 NA
HETATM    5  C11 UNK     0      -4.847  -9.930  -1.504  1.00  0.00     0.080 A 
HETATM    6  C12 UNK     0      -4.190  -9.744  -0.183  1.00  0.00     0.056 A 
HETATM    7  C13 UNK     0      -3.310 -11.951  -1.998  1.00  0.00     0.097 A 
HETATM    8  C14 UNK     0      -4.413 -11.031  -2.418  1.00  0.00     0.052 A 
HETATM    9  C15 UNK     0      -3.086 -10.660   0.240  1.00  0.00     0.056 A 
HETATM   10  C16 UNK     0      -2.646 -11.765  -0.669  1.00  0.00     0.059 A 
HETATM   11  C17 UNK     0      -5.744  -7.631   0.453  1.00  0.00     0.219 A 
HETATM   12  H18 UNK     0      -4.137  -8.517   1.663  1.00  0.00     0.166 HD
ENDROOT
BRANCH   7  13
HETATM   13  S3  UNK     0      -2.750 -13.343  -3.144  1.00  0.00     0.241 S 
HETATM   14  O7  UNK     0      -3.775 -14.511  -3.083  1.00  0.00    -0.206 OA
HETATM   15  O6  UNK     0      -1.362 -13.872  -2.685  1.00  0.00    -0.206 OA
BRANCH  13  16
HETATM   16  N10 UNK     0      -2.642 -12.732  -4.802  1.00  0.00    -0.225 NA
HETATM   17  H19 UNK     0      -1.650 -12.882  -5.174  1.00  0.00     0.136 HD
HETATM   18  H20 UNK     0      -2.873 -11.688  -4.814  1.00  0.00     0.136 HD
ENDBRANCH  13  16
ENDBRANCH   7  13
BRANCH   2  19
HETATM   19  O5  UNK     0      -5.807  -7.994  -3.289  1.00  0.00    -0.307 OA
HETATM   20  H8  UNK     0      -4.760  -7.994  -3.372  1.00  0.00     0.230 HD
ENDBRANCH   2  19
BRANCH   2  21
HETATM   21  O4  UNK     0      -7.525  -9.549  -2.285  1.00  0.00    -0.307 OA
HETATM   22  H7  UNK     0      -7.538  -9.842  -3.294  1.00  0.00     0.230 HD
ENDBRANCH   2  21
TORSDOF 4
ENDMDL
MODEL 3
REMARK VINA RESULT:    -5.914      4.292      5.698
REMARK INTER + INTRA:          -6.732
REMARK INTER:                  -6.618
REMARK INTRA:                  -0.114
REMARK UNBOUND:                 0.046
REMARK  4 active torsions:
REMARK  status: ('A' for Active; 'I' for Inactive)
REMARK    1  A    between atoms: S2_2  and  O5_5 
REMARK    2  A    between atoms: S2_2  and  O4_4 
REMARK    3  A    between atoms: S3_3  and  C13_13 
REMARK    4  A    between atoms: S3_3  and  N10_10 
ROOT
HETATM    1 CL1  UNK     0       0.580   4.819  -0.803  1.00  0.00    -0.083 Cl
HETATM    2  S2  UNK     0      -5.715   3.153  -2.469  1.00  0.00     0.106 S 
HETATM    3  N8  UNK     0      -4.786   5.979  -1.438  1.00  0.00    -0.349 N 
HETATM    4  N9  UNK     0      -6.804   4.537  -2.227  1.00  0.00    -0.180 NA
HETATM    5  C11 UNK     0      -3.946   3.587  -2.004  1.00  0.00     0.080 A 
HETATM    6  C12 UNK     0      -3.655   4.967  -1.534  1.00  0.00     0.056 A 
HETATM    7  C13 UNK     0      -1.451   2.956  -1.735  1.00  0.00     0.097 A 
HETATM    8  C14 UNK     0      -2.850   2.574  -2.108  1.00  0.00     0.052 A 
HETATM    9  C15 UNK     0      -2.259   5.353  -1.162  1.00  0.00     0.056 A 
HETATM   10  C16 UNK     0      -1.156   4.345  -1.263  1.00  0.00     0.059 A 
HETATM   11  C17 UNK     0      -6.231   5.741  -1.760  1.00  0.00     0.219 A 
HETATM   12  H18 UNK     0      -4.524   6.961  -1.105  1.00  0.00     0.166 HD
ENDROOT
BRANCH   7  13
HETATM   13  S3  UNK     0      -0.058   1.688  -1.865  1.00  0.00     0.241 S 
HETATM   14  O7  UNK     0      -0.628   0.340  -2.391  1.00  0.00    -0.206 OA
HETATM   15  O6  UNK     0       0.565   1.452  -0.460  1.00  0.00    -0.206 OA
BRANCH  13  16
HETATM   16  N10 UNK     0       1.180   2.286  -2.979  1.00  0.00    -0.225 NA
HETATM   17  H19 UNK     0       1.708   1.458  -3.403  1.00  0.00     0.136 HD
HETATM   18  H20 UNK     0       1.866   2.912  -2.447  1.00  0.00     0.136 HD
ENDBRANCH  13  16
ENDBRANCH   7  13
BRANCH   2  19
HETATM   19  O5  UNK     0      -5.756   2.732  -3.966  1.00  0.00    -0.307 OA
HETATM   20  H8  UNK     0      -6.747   2.759  -4.310  1.00  0.00     0.230 HD
ENDBRANCH   2  19
BRANCH   2  21
HETATM   21  O4  UNK     0      -6.205   1.956  -1.605  1.00  0.00    -0.307 OA
HETATM   22  H7  UNK     0      -7.247   1.860  -1.697  1.00  0.00     0.230 HD
ENDBRANCH   2  21
TORSDOF 4
ENDMDL
MODEL 4
REMARK VINA RESULT:    -5.815      4.471      7.168
REMARK INTER + INTRA:          -6.619
REMARK INTER:                  -6.520
REMARK INTRA:                  -0.100
REMARK UNBOUND:                 0.046
REMARK  4 active torsions:
REMARK  status: ('A' for Active; 'I' for Inactive)
REMARK    1  A    between atoms: S2_2  and  O5_5 
REMARK    2  A    between atoms: S2_2  and  O4_4 
REMARK    3  A    between atoms: S3_3  and  C13_13 
REMARK    4  A    between atoms: S3_3  and  N10_10 
ROOT
HETATM    1 CL1  UNK     0      -6.538   5.593  -1.719  1.00  0.00    -0.083 Cl
HETATM    2  S2  UNK     0      -2.475   4.279  -6.909  1.00  0.00     0.106 S 
HETATM    3  N8  UNK     0      -4.453   6.721  -6.711  1.00  0.00    -0.349 N 
HETATM    4  N9  UNK     0      -2.684   5.502  -8.181  1.00  0.00    -0.180 NA
HETATM    5  C11 UNK     0      -3.605   4.617  -5.444  1.00  0.00     0.080 A 
HETATM    6  C12 UNK     0      -4.486   5.814  -5.490  1.00  0.00     0.056 A 
HETATM    7  C13 UNK     0      -4.528   4.012  -3.105  1.00  0.00     0.097 A 
HETATM    8  C14 UNK     0      -3.619   3.710  -4.255  1.00  0.00     0.052 A 
HETATM    9  C15 UNK     0      -5.394   6.120  -4.342  1.00  0.00     0.056 A 
HETATM   10  C16 UNK     0      -5.414   5.217  -3.148  1.00  0.00     0.059 A 
HETATM   11  C17 UNK     0      -3.612   6.540  -7.938  1.00  0.00     0.219 A 
HETATM   12  H18 UNK     0      -5.096   7.575  -6.691  1.00  0.00     0.166 HD
ENDROOT
BRANCH   7  13
HETATM   13  S3  UNK     0      -4.553   2.877  -1.596  1.00  0.00     0.241 S 
HETATM   14  O7  UNK     0      -4.308   3.715  -0.309  1.00  0.00    -0.206 OA
HETATM   15  O6  UNK     0      -3.423   1.815  -1.723  1.00  0.00    -0.206 OA
BRANCH  13  16
HETATM   16  N10 UNK     0      -6.125   2.071  -1.491  1.00  0.00    -0.225 NA
HETATM   17  H19 UNK     0      -6.134   1.414  -0.648  1.00  0.00     0.136 HD
HETATM   18  H20 UNK     0      -6.298   1.508  -2.384  1.00  0.00     0.136 HD
ENDBRANCH  13  16
ENDBRANCH   7  13
BRANCH   2  19
HETATM   19  O5  UNK     0      -0.997   4.301  -6.423  1.00  0.00    -0.307 OA
HETATM   20  H8  UNK     0      -0.447   3.574  -6.943  1.00  0.00     0.230 HD
ENDBRANCH   2  19
BRANCH   2  21
HETATM   21  O4  UNK     0      -2.782   2.871  -7.494  1.00  0.00    -0.307 OA
HETATM   22  H7  UNK     0      -3.457   2.369  -6.865  1.00  0.00     0.230 HD
ENDBRANCH   2  21
TORSDOF 4
ENDMDL
MODEL 5
REMARK VINA RESULT:    -5.808      4.842      7.095
REMARK INTER + INTRA:          -6.611
REMARK INTER:                  -6.589
REMARK INTRA:                  -0.022
REMARK UNBOUND:                 0.046
REMARK  4 active torsions:
REMARK  status: ('A' for Active; 'I' for Inactive)
REMARK    1  A    between atoms: S2_2  and  O5_5 
REMARK    2  A    between atoms: S2_2  and  O4_4 
REMARK    3  A    between atoms: S3_3  and  C13_13 
REMARK    4  A    between atoms: S3_3  and  N10_10 
ROOT
HETATM    1 CL1  UNK     0      -5.952   3.800  -4.718  1.00  0.00    -0.083 Cl
HETATM    2  S2  UNK     0       0.333   1.784  -3.450  1.00  0.00     0.106 S 
HETATM    3  N8  UNK     0      -0.853   2.378  -6.306  1.00  0.00    -0.349 N 
HETATM    4  N9  UNK     0       1.243   1.609  -4.968  1.00  0.00    -0.180 NA
HETATM    5  C11 UNK     0      -1.433   2.341  -3.774  1.00  0.00     0.080 A 
HETATM    6  C12 UNK     0      -1.853   2.587  -5.179  1.00  0.00     0.056 A 
HETATM    7  C13 UNK     0      -3.795   2.990  -2.942  1.00  0.00     0.097 A 
HETATM    8  C14 UNK     0      -2.398   2.540  -2.648  1.00  0.00     0.052 A 
HETATM    9  C15 UNK     0      -3.247   3.038  -5.476  1.00  0.00     0.056 A 
HETATM   10  C16 UNK     0      -4.219   3.240  -4.355  1.00  0.00     0.059 A 
HETATM   11  C17 UNK     0       0.568   1.919  -6.169  1.00  0.00     0.219 A 
HETATM   12  H18 UNK     0      -1.200   2.579  -7.298  1.00  0.00     0.166 HD
ENDROOT
BRANCH   7  13
HETATM   13  S3  UNK     0      -5.022   3.248  -1.530  1.00  0.00     0.241 S 
HETATM   14  O7  UNK     0      -5.757   4.605  -1.721  1.00  0.00    -0.206 OA
HETATM   15  O6  UNK     0      -4.259   3.280  -0.175  1.00  0.00    -0.206 OA
BRANCH  13  16
HETATM   16  N10 UNK     0      -6.200   1.928  -1.525  1.00  0.00    -0.225 NA
HETATM   17  H19 UNK     0      -6.160   1.417  -0.586  1.00  0.00     0.136 HD
HETATM   18  H20 UNK     0      -5.972   1.242  -2.313  1.00  0.00     0.136 HD
ENDBRANCH  13  16
ENDBRANCH   7  13
BRANCH   2  19
HETATM   19  O5  UNK     0       1.040   2.840  -2.554  1.00  0.00    -0.307 OA
HETATM   20  H8  UNK     0       0.401   3.117  -1.768  1.00  0.00     0.230 HD
ENDBRANCH   2  19
BRANCH   2  21
HETATM   21  O4  UNK     0       0.324   0.422  -2.698  1.00  0.00    -0.307 OA
HETATM   22  H7  UNK     0       1.273   0.242  -2.286  1.00  0.00     0.230 HD
ENDBRANCH   2  21
TORSDOF 4
ENDMDL
MODEL 6
REMARK VINA RESULT:    -5.655      4.281      5.709
REMARK INTER + INTRA:          -6.435
REMARK INTER:                  -6.357
REMARK INTRA:                  -0.078
REMARK UNBOUND:                 0.046
REMARK  4 active torsions:
REMARK  status: ('A' for Active; 'I' for Inactive)
REMARK    1  A    between atoms: S2_2  and  O5_5 
REMARK    2  A    between atoms: S2_2  and  O4_4 
REMARK    3  A    between atoms: S3_3  and  C13_13 
REMARK    4  A    between atoms: S3_3  and  N10_10 
ROOT
HETATM    1 CL1  UNK     0      -0.563   3.971  -6.079  1.00  0.00    -0.083 Cl
HETATM    2  S2  UNK     0      -5.248   3.304  -1.306  1.00  0.00     0.106 S 
HETATM    3  N8  UNK     0      -5.104   5.643  -3.409  1.00  0.00    -0.349 N 
HETATM    4  N9  UNK     0      -6.400   4.656  -1.379  1.00  0.00    -0.180 NA
HETATM    5  C11 UNK     0      -3.920   3.466  -2.627  1.00  0.00     0.080 A 
HETATM    6  C12 UNK     0      -3.982   4.626  -3.556  1.00  0.00     0.056 A 
HETATM    7  C13 UNK     0      -1.789   2.611  -3.818  1.00  0.00     0.097 A 
HETATM    8  C14 UNK     0      -2.826   2.453  -2.751  1.00  0.00     0.052 A 
HETATM    9  C15 UNK     0      -2.947   4.787  -4.624  1.00  0.00     0.056 A 
HETATM   10  C16 UNK     0      -1.850   3.777  -4.755  1.00  0.00     0.059 A 
HETATM   11  C17 UNK     0      -6.200   5.626  -2.387  1.00  0.00     0.219 A 
HETATM   12  H18 UNK     0      -5.111   6.453  -4.108  1.00  0.00     0.166 HD
ENDROOT
BRANCH   7  13
HETATM   13  S3  UNK     0      -0.405   1.338  -3.987  1.00  0.00     0.241 S 
HETATM   14  O7  UNK     0      -0.555   0.582  -5.338  1.00  0.00    -0.206 OA
HETATM   15  O6  UNK     0      -0.498   0.308  -2.825  1.00  0.00    -0.206 OA
BRANCH  13  16
HETATM   16  N10 UNK     0       1.162   2.160  -3.936  1.00  0.00    -0.225 NA
HETATM   17  H19 UNK     0       1.840   1.599  -3.328  1.00  0.00     0.136 HD
HETATM   18  H20 UNK     0       1.038   3.139  -3.523  1.00  0.00     0.136 HD
ENDBRANCH  13  16
ENDBRANCH   7  13
BRANCH   2  19
HETATM   19  O5  UNK     0      -6.018   1.970  -1.525  1.00  0.00    -0.307 OA
HETATM   20  H8  UNK     0      -5.664   1.500  -2.395  1.00  0.00     0.230 HD
ENDBRANCH   2  19
BRANCH   2  21
HETATM   21  O4  UNK     0      -4.586   3.268   0.101  1.00  0.00    -0.307 OA
HETATM   22  H7  UNK     0      -5.080   2.564   0.703  1.00  0.00     0.230 HD
ENDBRANCH   2  21
TORSDOF 4
ENDMDL
MODEL 7
REMARK VINA RESULT:    -5.617      2.929      6.199
REMARK INTER + INTRA:          -6.392
REMARK INTER:                  -6.316
REMARK INTRA:                  -0.076
REMARK UNBOUND:                 0.046
REMARK  4 active torsions:
REMARK  status: ('A' for Active; 'I' for Inactive)
REMARK    1  A    between atoms: S2_2  and  O5_5 
REMARK    2  A    between atoms: S2_2  and  O4_4 
REMARK    3  A    between atoms: S3_3  and  C13_13 
REMARK    4  A    between atoms: S3_3  and  N10_10 
ROOT
HETATM    1 CL1  UNK     0      -0.894   5.938   1.764  1.00  0.00    -0.083 Cl
HETATM    2  S2  UNK     0      -5.481   3.242  -2.342  1.00  0.00     0.106 S 
HETATM    3  N8  UNK     0      -2.383   3.351  -2.887  1.00  0.00    -0.349 N 
HETATM    4  N9  UNK     0      -4.701   2.607  -3.808  1.00  0.00    -0.180 NA
HETATM    5  C11 UNK     0      -4.223   4.010  -1.176  1.00  0.00     0.080 A 
HETATM    6  C12 UNK     0      -2.788   3.985  -1.566  1.00  0.00     0.056 A 
HETATM    7  C13 UNK     0      -3.616   5.225   1.026  1.00  0.00     0.097 A 
HETATM    8  C14 UNK     0      -4.646   4.628   0.119  1.00  0.00     0.052 A 
HETATM    9  C15 UNK     0      -1.756   4.580  -0.661  1.00  0.00     0.056 A 
HETATM   10  C16 UNK     0      -2.171   5.200   0.637  1.00  0.00     0.059 A 
HETATM   11  C17 UNK     0      -3.296   2.730  -3.901  1.00  0.00     0.219 A 
HETATM   12  H18 UNK     0      -1.338   3.348  -3.117  1.00  0.00     0.166 HD
ENDROOT
BRANCH   7  13
HETATM   13  S3  UNK     0      -4.138   6.004   2.665  1.00  0.00     0.241 S 
HETATM   14  O7  UNK     0      -5.687   6.123   2.715  1.00  0.00    -0.206 OA
HETATM   15  O6  UNK     0      -3.524   7.428   2.784  1.00  0.00    -0.206 OA
BRANCH  13  16
HETATM   16  N10 UNK     0      -3.574   4.993   4.004  1.00  0.00    -0.225 NA
HETATM   17  H19 UNK     0      -4.097   5.261   4.898  1.00  0.00     0.136 HD
HETATM   18  H20 UNK     0      -2.524   5.143   4.147  1.00  0.00     0.136 HD
ENDBRANCH  13  16
ENDBRANCH   7  13
BRANCH   2  19
HETATM   19  O5  UNK     0      -6.206   2.077  -1.609  1.00  0.00    -0.307 OA
HETATM   20  H8  UNK     0      -7.156   2.397  -1.297  1.00  0.00     0.230 HD
ENDBRANCH   2  19
BRANCH   2  21
HETATM   21  O4  UNK     0      -6.541   4.308  -2.745  1.00  0.00    -0.307 OA
HETATM   22  H7  UNK     0      -6.056   5.159  -3.124  1.00  0.00     0.230 HD
ENDBRANCH   2  21
TORSDOF 4
ENDMDL
MODEL 8
REMARK VINA RESULT:    -5.560      4.284      5.791
REMARK INTER + INTRA:          -6.326
REMARK INTER:                  -6.234
REMARK INTRA:                  -0.092
REMARK UNBOUND:                 0.046
REMARK  4 active torsions:
REMARK  status: ('A' for Active; 'I' for Inactive)
REMARK    1  A    between atoms: S2_2  and  O5_5 
REMARK    2  A    between atoms: S2_2  and  O4_4 
REMARK    3  A    between atoms: S3_3  and  C13_13 
REMARK    4  A    between atoms: S3_3  and  N10_10 
ROOT
HETATM    1 CL1  UNK     0      -5.960   5.265  -8.031  1.00  0.00    -0.083 Cl
HETATM    2  S2  UNK     0      -5.205   2.888  -1.790  1.00  0.00     0.106 S 
HETATM    3  N8  UNK     0      -5.605   5.916  -2.555  1.00  0.00    -0.349 N 
HETATM    4  N9  UNK     0      -5.242   4.220  -0.614  1.00  0.00    -0.180 NA
HETATM    5  C11 UNK     0      -5.408   3.523  -3.548  1.00  0.00     0.080 A 
HETATM    6  C12 UNK     0      -5.591   4.984  -3.757  1.00  0.00     0.056 A 
HETATM    7  C13 UNK     0      -5.561   3.127  -6.099  1.00  0.00     0.097 A 
HETATM    8  C14 UNK     0      -5.391   2.587  -4.714  1.00  0.00     0.052 A 
HETATM    9  C15 UNK     0      -5.762   5.527  -5.140  1.00  0.00     0.056 A 
HETATM   10  C16 UNK     0      -5.747   4.596  -6.312  1.00  0.00     0.059 A 
HETATM   11  C17 UNK     0      -5.433   5.527  -1.117  1.00  0.00     0.219 A 
HETATM   12  H18 UNK     0      -5.751   6.956  -2.756  1.00  0.00     0.166 HD
ENDROOT
BRANCH   7  13
HETATM   13  S3  UNK     0      -5.545   1.954  -7.580  1.00  0.00     0.241 S 
HETATM   14  O7  UNK     0      -5.135   0.530  -7.111  1.00  0.00    -0.206 OA
HETATM   15  O6  UNK     0      -4.511   2.452  -8.629  1.00  0.00    -0.206 OA
BRANCH  13  16
HETATM   16  N10 UNK     0      -7.159   1.900  -8.305  1.00  0.00    -0.225 NA
HETATM   17  H19 UNK     0      -7.423   0.885  -8.512  1.00  0.00     0.136 HD
HETATM   18  H20 UNK     0      -7.160   2.462  -9.215  1.00  0.00     0.136 HD
ENDBRANCH  13  16
ENDBRANCH   7  13
BRANCH   2  19
HETATM   19  O5  UNK     0      -6.364   1.900  -1.473  1.00  0.00    -0.307 OA
HETATM   20  H8  UNK     0      -6.471   1.220  -2.266  1.00  0.00     0.230 HD
ENDBRANCH   2  19
BRANCH   2  21
HETATM   21  O4  UNK     0      -3.855   2.126  -1.660  1.00  0.00    -0.307 OA
HETATM   22  H7  UNK     0      -3.212   2.657  -1.022  1.00  0.00     0.230 HD
ENDBRANCH   2  21
TORSDOF 4
ENDMDL
MODEL 9
REMARK VINA RESULT:    -5.537      4.269      4.968
REMARK INTER + INTRA:          -6.300
REMARK INTER:                  -6.203
REMARK INTRA:                  -0.097
REMARK UNBOUND:                 0.046
REMARK  4 active torsions:
REMARK  status: ('A' for Active; 'I' for Inactive)
REMARK    1  A    between atoms: S2_2  and  O5_5 
REMARK    2  A    between atoms: S2_2  and  O4_4 
REMARK    3  A    between atoms: S3_3  and  C13_13 
REMARK    4  A    between atoms: S3_3  and  N10_10 
ROOT
HETATM    1 CL1  UNK     0      -5.666   5.749  -2.294  1.00  0.00    -0.083 Cl
HETATM    2  S2  UNK     0       0.178   2.526  -1.502  1.00  0.00     0.106 S 
HETATM    3  N8  UNK     0      -0.763   5.033   0.153  1.00  0.00    -0.349 N 
HETATM    4  N9  UNK     0       1.143   3.303  -0.227  1.00  0.00    -0.180 NA
HETATM    5  C11 UNK     0      -1.462   3.410  -1.751  1.00  0.00     0.080 A 
HETATM    6  C12 UNK     0      -1.773   4.583  -0.891  1.00  0.00     0.056 A 
HETATM    7  C13 UNK     0      -3.738   3.673  -2.953  1.00  0.00     0.097 A 
HETATM    8  C14 UNK     0      -2.439   2.948  -2.785  1.00  0.00     0.052 A 
HETATM    9  C15 UNK     0      -3.070   5.309  -1.055  1.00  0.00     0.056 A 
HETATM   10  C16 UNK     0      -4.054   4.852  -2.087  1.00  0.00     0.059 A 
HETATM   11  C17 UNK     0       0.577   4.420   0.426  1.00  0.00     0.219 A 
HETATM   12  H18 UNK     0      -1.038   5.875   0.754  1.00  0.00     0.166 HD
ENDROOT
BRANCH   7  13
HETATM   13  S3  UNK     0      -4.981   3.097  -4.252  1.00  0.00     0.241 S 
HETATM   14  O7  UNK     0      -5.379   4.295  -5.160  1.00  0.00    -0.206 OA
HETATM   15  O6  UNK     0      -6.260   2.558  -3.549  1.00  0.00    -0.206 OA
BRANCH  13  16
HETATM   16  N10 UNK     0      -4.254   1.819  -5.237  1.00  0.00    -0.225 NA
HETATM   17  H19 UNK     0      -3.791   1.096  -4.599  1.00  0.00     0.136 HD
HETATM   18  H20 UNK     0      -3.518   2.244  -5.887  1.00  0.00     0.136 HD
ENDBRANCH  13  16
ENDBRANCH   7  13
BRANCH   2  19
HETATM   19  O5  UNK     0      -0.100   1.049  -1.098  1.00  0.00    -0.307 OA
HETATM   20  H8  UNK     0       0.771   0.628  -0.690  1.00  0.00     0.230 HD
ENDBRANCH   2  19
BRANCH   2  21
HETATM   21  O4  UNK     0       0.984   2.531  -2.832  1.00  0.00    -0.307 OA
HETATM   22  H7  UNK     0       0.401   2.958  -3.594  1.00  0.00     0.230 HD
ENDBRANCH   2  21
TORSDOF 4
ENDMDL
