MODEL 5
REMARK VINA RESULT:    -5.692      2.078      3.139
REMARK INTER + INTRA:          -7.571
REMARK INTER:                  -7.055
REMARK INTRA:                  -0.516
REMARK UNBOUND:                -0.714
REMARK  4 active torsions:
REMARK  status: ('A' for Active; 'I' for Inactive)
REMARK    1  A    between atoms: N1_1  and  C4_4 
REMARK    2  A    between atoms: N2_2  and  C6_6 
REMARK    3  A    between atoms: C3_3  and  C4_4 
REMARK    4  A    between atoms: C5_5  and  C6_6 
ROOT
HETATM    1  N1  UNK     0      -2.863 -11.101  -0.475  1.00  0.00    -0.268 NA
HETATM    2  C6  UNK     0      -3.380 -10.135  -1.289  1.00  0.00     0.126 C 
ENDROOT
BRANCH   1   3
HETATM    3  C4  UNK     0      -3.589 -11.658   0.763  1.00  0.00     0.189 C 
BRANCH   3   4
HETATM    4  C3  UNK     0      -4.189 -13.076   0.395  1.00  0.00    -0.038 A 
HETATM    5  C8  UNK     0      -4.588 -13.356  -0.969  1.00  0.00     0.009 A 
HETATM    6  C12 UNK     0      -5.136 -14.652  -1.316  1.00  0.00     0.001 A 
HETATM    7  C13 UNK     0      -5.284 -15.670  -0.296  1.00  0.00     0.000 A 
HETATM    8  C11 UNK     0      -4.886 -15.390   1.069  1.00  0.00     0.001 A 
HETATM    9  C7  UNK     0      -4.336 -14.094   1.415  1.00  0.00     0.009 A 
ENDBRANCH   3   4
ENDBRANCH   1   3
BRANCH   2  10
HETATM   10  N2  UNK     0      -2.599  -9.699  -2.419  1.00  0.00    -0.384 N 
HETATM   11  H18 UNK     0      -3.082  -9.248  -3.261  1.00  0.00     0.157 HD
HETATM   12  H17 UNK     0      -1.536  -9.824  -2.416  1.00  0.00     0.157 HD
ENDBRANCH   2  10
BRANCH   2  13
HETATM   13  C5  UNK     0      -4.770  -9.490  -1.061  1.00  0.00     0.009 A 
HETATM   14  C9  UNK     0      -5.909  -9.989  -1.805  1.00  0.00     0.015 A 
HETATM   15  C14 UNK     0      -7.218  -9.397  -1.615  1.00  0.00     0.001 A 
HETATM   16  C16 UNK     0      -7.391  -8.304  -0.679  1.00  0.00     0.000 A 
HETATM   17  C15 UNK     0      -6.253  -7.803   0.066  1.00  0.00     0.001 A 
HETATM   18  C10 UNK     0      -4.944  -8.395  -0.127  1.00  0.00     0.015 A 
ENDBRANCH   2  13
TORSDOF 4
ENDMDL
