MODEL 1
REMARK VINA RESULT:    -6.142      0.000      0.000
REMARK INTER + INTRA:          -8.113
REMARK INTER:                  -7.399
REMARK INTRA:                  -0.714
REMARK UNBOUND:                -0.714
REMARK  4 active torsions:
REMARK  status: ('A' for Active; 'I' for Inactive)
REMARK    1  A    between atoms: N1_1  and  C4_4 
REMARK    2  A    between atoms: N2_2  and  C6_6 
REMARK    3  A    between atoms: C3_3  and  C4_4 
REMARK    4  A    between atoms: C5_5  and  C6_6 
ROOT
HETATM    1  N1  UNK     0      -4.528 -11.219  -3.141  1.00  0.00    -0.268 NA
HETATM    2  C6  UNK     0      -4.845  -9.891  -3.168  1.00  0.00     0.126 C 
ENDROOT
BRANCH   1   3
HETATM    3  C4  UNK     0      -4.688 -12.114  -1.899  1.00  0.00     0.189 C 
BRANCH   3   4
HETATM    4  C3  UNK     0      -3.329 -12.095  -1.090  1.00  0.00    -0.038 A 
HETATM    5  C8  UNK     0      -3.351 -12.181   0.356  1.00  0.00     0.009 A 
HETATM    6  C12 UNK     0      -2.111 -12.166   1.106  1.00  0.00     0.001 A 
HETATM    7  C13 UNK     0      -0.846 -12.067   0.407  1.00  0.00     0.000 A 
HETATM    8  C11 UNK     0      -0.822 -11.979  -1.039  1.00  0.00     0.001 A 
HETATM    9  C7  UNK     0      -2.063 -11.996  -1.789  1.00  0.00     0.009 A 
ENDBRANCH   3   4
ENDBRANCH   1   3
BRANCH   2  10
HETATM   10  N2  UNK     0      -4.650  -9.163  -4.396  1.00  0.00    -0.384 N 
HETATM   11  H18 UNK     0      -5.495  -8.807  -4.947  1.00  0.00     0.157 HD
HETATM   12  H17 UNK     0      -3.659  -8.979  -4.758  1.00  0.00     0.157 HD
ENDBRANCH   2  10
BRANCH   2  13
HETATM   13  C5  UNK     0      -5.409  -9.131  -1.943  1.00  0.00     0.009 A 
HETATM   14  C9  UNK     0      -6.845  -9.007  -1.791  1.00  0.00     0.015 A 
HETATM   15  C14 UNK     0      -7.398  -8.294  -0.657  1.00  0.00     0.001 A 
HETATM   16  C16 UNK     0      -6.516  -7.703   0.329  1.00  0.00     0.000 A 
HETATM   17  C15 UNK     0      -5.079  -7.824   0.178  1.00  0.00     0.001 A 
HETATM   18  C10 UNK     0      -4.528  -8.536  -0.958  1.00  0.00     0.015 A 
ENDBRANCH   2  13
TORSDOF 4
ENDMDL
MODEL 2
REMARK VINA RESULT:    -5.900      1.326      5.385
REMARK INTER + INTRA:          -7.821
REMARK INTER:                  -7.240
REMARK INTRA:                  -0.581
REMARK UNBOUND:                -0.714
REMARK  4 active torsions:
REMARK  status: ('A' for Active; 'I' for Inactive)
REMARK    1  A    between atoms: N1_1  and  C4_4 
REMARK    2  A    between atoms: N2_2  and  C6_6 
REMARK    3  A    between atoms: C3_3  and  C4_4 
REMARK    4  A    between atoms: C5_5  and  C6_6 
ROOT
HETATM    1  N1  UNK     0      -4.241 -10.456  -3.570  1.00  0.00    -0.268 NA
HETATM    2  C6  UNK     0      -2.907 -10.743  -3.597  1.00  0.00     0.126 C 
ENDROOT
BRANCH   1   3
HETATM    3  C4  UNK     0      -5.225 -11.045  -2.544  1.00  0.00     0.189 C 
BRANCH   3   4
HETATM    4  C3  UNK     0      -5.745  -9.872  -1.619  1.00  0.00    -0.038 A 
HETATM    5  C8  UNK     0      -4.826  -9.197  -0.726  1.00  0.00     0.009 A 
HETATM    6  C12 UNK     0      -5.292  -8.120   0.123  1.00  0.00     0.001 A 
HETATM    7  C13 UNK     0      -6.683  -7.717   0.079  1.00  0.00     0.000 A 
HETATM    8  C11 UNK     0      -7.605  -8.392  -0.812  1.00  0.00     0.001 A 
HETATM    9  C7  UNK     0      -7.136  -9.468  -1.663  1.00  0.00     0.009 A 
ENDBRANCH   3   4
ENDBRANCH   1   3
BRANCH   2  10
HETATM   10  N2  UNK     0      -2.091 -10.124  -4.611  1.00  0.00    -0.384 N 
HETATM   11  H18 UNK     0      -1.107  -9.781  -4.369  1.00  0.00     0.157 HD
HETATM   12  H17 UNK     0      -2.469 -10.008  -5.605  1.00  0.00     0.157 HD
ENDBRANCH   2  10
BRANCH   2  13
HETATM   13  C5  UNK     0      -2.227 -11.699  -2.586  1.00  0.00     0.009 A 
HETATM   14  C9  UNK     0      -1.676 -11.153  -1.362  1.00  0.00     0.015 A 
HETATM   15  C14 UNK     0      -1.028 -12.026  -0.403  1.00  0.00     0.001 A 
HETATM   16  C16 UNK     0      -0.928 -13.447  -0.667  1.00  0.00     0.000 A 
HETATM   17  C15 UNK     0      -1.477 -13.995  -1.892  1.00  0.00     0.001 A 
HETATM   18  C10 UNK     0      -2.124 -13.121  -2.851  1.00  0.00     0.015 A 
ENDBRANCH   2  13
TORSDOF 4
ENDMDL
MODEL 3
REMARK VINA RESULT:    -5.851      1.344      5.122
REMARK INTER + INTRA:          -7.762
REMARK INTER:                  -7.233
REMARK INTRA:                  -0.529
REMARK UNBOUND:                -0.714
REMARK  4 active torsions:
REMARK  status: ('A' for Active; 'I' for Inactive)
REMARK    1  A    between atoms: N1_1  and  C4_4 
REMARK    2  A    between atoms: N2_2  and  C6_6 
REMARK    3  A    between atoms: C3_3  and  C4_4 
REMARK    4  A    between atoms: C5_5  and  C6_6 
ROOT
HETATM    1  N1  UNK     0      -3.513 -10.380  -2.996  1.00  0.00    -0.268 NA
HETATM    2  C6  UNK     0      -2.679 -11.010  -2.118  1.00  0.00     0.126 C 
ENDROOT
BRANCH   1   3
HETATM    3  C4  UNK     0      -5.044 -10.540  -2.988  1.00  0.00     0.189 C 
BRANCH   3   4
HETATM    4  C3  UNK     0      -5.651  -9.498  -1.964  1.00  0.00    -0.038 A 
HETATM    5  C8  UNK     0      -4.789  -8.517  -1.339  1.00  0.00     0.009 A 
HETATM    6  C12 UNK     0      -5.336  -7.557  -0.402  1.00  0.00     0.001 A 
HETATM    7  C13 UNK     0      -6.750  -7.578  -0.089  1.00  0.00     0.000 A 
HETATM    8  C11 UNK     0      -7.615  -8.560  -0.713  1.00  0.00     0.001 A 
HETATM    9  C7  UNK     0      -7.066  -9.519  -1.653  1.00  0.00     0.009 A 
ENDBRANCH   3   4
ENDBRANCH   1   3
BRANCH   2  10
HETATM   10  N2  UNK     0      -1.261 -10.775  -2.230  1.00  0.00    -0.384 N 
HETATM   11  H18 UNK     0      -0.854  -9.823  -1.960  1.00  0.00     0.157 HD
HETATM   12  H17 UNK     0      -0.616 -11.553  -2.583  1.00  0.00     0.157 HD
ENDBRANCH   2  10
BRANCH   2  13
HETATM   13  C5  UNK     0      -3.183 -11.960  -1.005  1.00  0.00     0.009 A 
HETATM   14  C9  UNK     0      -3.368 -11.440   0.335  1.00  0.00     0.015 A 
HETATM   15  C14 UNK     0      -3.831 -12.311   1.396  1.00  0.00     0.001 A 
HETATM   16  C16 UNK     0      -4.111 -13.706   1.120  1.00  0.00     0.000 A 
HETATM   17  C15 UNK     0      -3.925 -14.229  -0.219  1.00  0.00     0.001 A 
HETATM   18  C10 UNK     0      -3.460 -13.357  -1.279  1.00  0.00     0.015 A 
ENDBRANCH   2  13
TORSDOF 4
ENDMDL
MODEL 4
REMARK VINA RESULT:    -5.781      1.393      2.481
REMARK INTER + INTRA:          -7.678
REMARK INTER:                  -7.195
REMARK INTRA:                  -0.483
REMARK UNBOUND:                -0.714
REMARK  4 active torsions:
REMARK  status: ('A' for Active; 'I' for Inactive)
REMARK    1  A    between atoms: N1_1  and  C4_4 
REMARK    2  A    between atoms: N2_2  and  C6_6 
REMARK    3  A    between atoms: C3_3  and  C4_4 
REMARK    4  A    between atoms: C5_5  and  C6_6 
ROOT
HETATM    1  N1  UNK     0      -3.509 -10.750  -2.607  1.00  0.00    -0.268 NA
HETATM    2  C6  UNK     0      -4.441  -9.816  -2.958  1.00  0.00     0.126 C 
ENDROOT
BRANCH   1   3
HETATM    3  C4  UNK     0      -3.184 -11.132  -1.152  1.00  0.00     0.189 C 
BRANCH   3   4
HETATM    4  C3  UNK     0      -3.904 -12.501  -0.822  1.00  0.00    -0.038 A 
HETATM    5  C8  UNK     0      -4.634 -13.200  -1.860  1.00  0.00     0.009 A 
HETATM    6  C12 UNK     0      -5.295 -14.456  -1.567  1.00  0.00     0.001 A 
HETATM    7  C13 UNK     0      -5.225 -15.015  -0.233  1.00  0.00     0.000 A 
HETATM    8  C11 UNK     0      -4.496 -14.317   0.807  1.00  0.00     0.001 A 
HETATM    9  C7  UNK     0      -3.833 -13.062   0.513  1.00  0.00     0.009 A 
ENDBRANCH   3   4
ENDBRANCH   1   3
BRANCH   2  10
HETATM   10  N2  UNK     0      -4.653  -9.549  -4.359  1.00  0.00    -0.384 N 
HETATM   11  H18 UNK     0      -4.605 -10.349  -5.068  1.00  0.00     0.157 HD
HETATM   12  H17 UNK     0      -4.858  -8.552  -4.689  1.00  0.00     0.157 HD
ENDBRANCH   2  10
BRANCH   2  13
HETATM   13  C5  UNK     0      -5.286  -9.034  -1.923  1.00  0.00     0.009 A 
HETATM   14  C9  UNK     0      -6.668  -9.414  -1.710  1.00  0.00     0.015 A 
HETATM   15  C14 UNK     0      -7.482  -8.692  -0.753  1.00  0.00     0.001 A 
HETATM   16  C16 UNK     0      -6.916  -7.587  -0.005  1.00  0.00     0.000 A 
HETATM   17  C15 UNK     0      -5.534  -7.205  -0.217  1.00  0.00     0.001 A 
HETATM   18  C10 UNK     0      -4.721  -7.926  -1.177  1.00  0.00     0.015 A 
ENDBRANCH   2  13
TORSDOF 4
ENDMDL
MODEL 5
REMARK VINA RESULT:    -5.692      2.078      3.139
REMARK INTER + INTRA:          -7.571
REMARK INTER:                  -7.055
REMARK INTRA:                  -0.516
REMARK UNBOUND:                -0.714
REMARK  4 active torsions:
REMARK  status: ('A' for Active; 'I' for Inactive)
REMARK    1  A    between atoms: N1_1  and  C4_4 
REMARK    2  A    between atoms: N2_2  and  C6_6 
REMARK    3  A    between atoms: C3_3  and  C4_4 
REMARK    4  A    between atoms: C5_5  and  C6_6 
ROOT
HETATM    1  N1  UNK     0      -2.863 -11.101  -0.475  1.00  0.00    -0.268 NA
HETATM    2  C6  UNK     0      -3.380 -10.135  -1.289  1.00  0.00     0.126 C 
ENDROOT
BRANCH   1   3
HETATM    3  C4  UNK     0      -3.589 -11.658   0.763  1.00  0.00     0.189 C 
BRANCH   3   4
HETATM    4  C3  UNK     0      -4.189 -13.076   0.395  1.00  0.00    -0.038 A 
HETATM    5  C8  UNK     0      -4.588 -13.356  -0.969  1.00  0.00     0.009 A 
HETATM    6  C12 UNK     0      -5.136 -14.652  -1.316  1.00  0.00     0.001 A 
HETATM    7  C13 UNK     0      -5.284 -15.670  -0.296  1.00  0.00     0.000 A 
HETATM    8  C11 UNK     0      -4.886 -15.390   1.069  1.00  0.00     0.001 A 
HETATM    9  C7  UNK     0      -4.336 -14.094   1.415  1.00  0.00     0.009 A 
ENDBRANCH   3   4
ENDBRANCH   1   3
BRANCH   2  10
HETATM   10  N2  UNK     0      -2.599  -9.699  -2.419  1.00  0.00    -0.384 N 
HETATM   11  H18 UNK     0      -3.082  -9.248  -3.261  1.00  0.00     0.157 HD
HETATM   12  H17 UNK     0      -1.536  -9.824  -2.416  1.00  0.00     0.157 HD
ENDBRANCH   2  10
BRANCH   2  13
HETATM   13  C5  UNK     0      -4.770  -9.490  -1.061  1.00  0.00     0.009 A 
HETATM   14  C9  UNK     0      -5.909  -9.989  -1.805  1.00  0.00     0.015 A 
HETATM   15  C14 UNK     0      -7.218  -9.397  -1.615  1.00  0.00     0.001 A 
HETATM   16  C16 UNK     0      -7.391  -8.304  -0.679  1.00  0.00     0.000 A 
HETATM   17  C15 UNK     0      -6.253  -7.803   0.066  1.00  0.00     0.001 A 
HETATM   18  C10 UNK     0      -4.944  -8.395  -0.127  1.00  0.00     0.015 A 
ENDBRANCH   2  13
TORSDOF 4
ENDMDL
MODEL 6
REMARK VINA RESULT:    -5.646     12.656     14.531
REMARK INTER + INTRA:          -7.515
REMARK INTER:                  -7.002
REMARK INTRA:                  -0.513
REMARK UNBOUND:                -0.714
REMARK  4 active torsions:
REMARK  status: ('A' for Active; 'I' for Inactive)
REMARK    1  A    between atoms: N1_1  and  C4_4 
REMARK    2  A    between atoms: N2_2  and  C6_6 
REMARK    3  A    between atoms: C3_3  and  C4_4 
REMARK    4  A    between atoms: C5_5  and  C6_6 
ROOT
HETATM    1  N1  UNK     0     -17.042  -2.291   3.453  1.00  0.00    -0.268 NA
HETATM    2  C6  UNK     0     -16.482  -1.712   2.351  1.00  0.00     0.126 C 
ENDROOT
BRANCH   1   3
HETATM    3  C4  UNK     0     -16.264  -3.170   4.448  1.00  0.00     0.189 C 
BRANCH   3   4
HETATM    4  C3  UNK     0     -16.632  -4.684   4.174  1.00  0.00    -0.038 A 
HETATM    5  C8  UNK     0     -16.537  -5.216   2.830  1.00  0.00     0.009 A 
HETATM    6  C12 UNK     0     -16.870  -6.601   2.569  1.00  0.00     0.001 A 
HETATM    7  C13 UNK     0     -17.300  -7.458   3.655  1.00  0.00     0.000 A 
HETATM    8  C11 UNK     0     -17.397  -6.927   5.000  1.00  0.00     0.001 A 
HETATM    9  C7  UNK     0     -17.061  -5.541   5.261  1.00  0.00     0.009 A 
ENDBRANCH   3   4
ENDBRANCH   1   3
BRANCH   2  10
HETATM   10  N2  UNK     0     -17.320  -0.909   1.497  1.00  0.00    -0.384 N 
HETATM   11  H18 UNK     0     -16.895  -0.398   0.658  1.00  0.00     0.157 HD
HETATM   12  H17 UNK     0     -18.367  -0.823   1.701  1.00  0.00     0.157 HD
ENDBRANCH   2  10
BRANCH   2  13
HETATM   13  C5  UNK     0     -14.988  -1.872   1.978  1.00  0.00     0.009 A 
HETATM   14  C9  UNK     0     -14.621  -2.788   0.917  1.00  0.00     0.015 A 
HETATM   15  C14 UNK     0     -13.229  -2.962   0.554  1.00  0.00     0.001 A 
HETATM   16  C16 UNK     0     -12.199  -2.218   1.252  1.00  0.00     0.000 A 
HETATM   17  C15 UNK     0     -12.563  -1.302   2.314  1.00  0.00     0.001 A 
HETATM   18  C10 UNK     0     -13.956  -1.131   2.677  1.00  0.00     0.015 A 
ENDBRANCH   2  13
TORSDOF 4
ENDMDL
MODEL 7
REMARK VINA RESULT:    -5.526      1.759      5.382
REMARK INTER + INTRA:          -7.370
REMARK INTER:                  -6.853
REMARK INTRA:                  -0.517
REMARK UNBOUND:                -0.714
REMARK  4 active torsions:
REMARK  status: ('A' for Active; 'I' for Inactive)
REMARK    1  A    between atoms: N1_1  and  C4_4 
REMARK    2  A    between atoms: N2_2  and  C6_6 
REMARK    3  A    between atoms: C3_3  and  C4_4 
REMARK    4  A    between atoms: C5_5  and  C6_6 
ROOT
HETATM    1  N1  UNK     0      -3.138 -10.297  -2.521  1.00  0.00    -0.268 NA
HETATM    2  C6  UNK     0      -3.143 -11.549  -3.064  1.00  0.00     0.126 C 
ENDROOT
BRANCH   1   3
HETATM    3  C4  UNK     0      -3.448 -10.001  -1.043  1.00  0.00     0.189 C 
BRANCH   3   4
HETATM    4  C3  UNK     0      -4.913  -9.413  -0.947  1.00  0.00    -0.038 A 
HETATM    5  C8  UNK     0      -5.966  -9.965  -1.775  1.00  0.00     0.009 A 
HETATM    6  C12 UNK     0      -7.312  -9.435  -1.692  1.00  0.00     0.001 A 
HETATM    7  C13 UNK     0      -7.606  -8.350  -0.778  1.00  0.00     0.000 A 
HETATM    8  C11 UNK     0      -6.553  -7.796   0.050  1.00  0.00     0.001 A 
HETATM    9  C7  UNK     0      -5.207  -8.328  -0.032  1.00  0.00     0.009 A 
ENDBRANCH   3   4
ENDBRANCH   1   3
BRANCH   2  10
HETATM   10  N2  UNK     0      -2.834 -11.693  -4.464  1.00  0.00    -0.384 N 
HETATM   11  H18 UNK     0      -1.814 -11.706  -4.788  1.00  0.00     0.157 HD
HETATM   12  H17 UNK     0      -3.624 -11.788  -5.180  1.00  0.00     0.157 HD
ENDBRANCH   2  10
BRANCH   2  13
HETATM   13  C5  UNK     0      -3.461 -12.825  -2.245  1.00  0.00     0.009 A 
HETATM   14  C9  UNK     0      -4.808 -13.360  -2.268  1.00  0.00     0.015 A 
HETATM   15  C14 UNK     0      -5.133 -14.547  -1.504  1.00  0.00     0.001 A 
HETATM   16  C16 UNK     0      -4.111 -15.204  -0.714  1.00  0.00     0.000 A 
HETATM   17  C15 UNK     0      -2.763 -14.670  -0.687  1.00  0.00     0.001 A 
HETATM   18  C10 UNK     0      -2.440 -13.480  -1.451  1.00  0.00     0.015 A 
ENDBRANCH   2  13
TORSDOF 4
ENDMDL
MODEL 8
REMARK VINA RESULT:    -5.489     14.765     17.537
REMARK INTER + INTRA:          -7.326
REMARK INTER:                  -6.708
REMARK INTRA:                  -0.617
REMARK UNBOUND:                -0.714
REMARK  4 active torsions:
REMARK  status: ('A' for Active; 'I' for Inactive)
REMARK    1  A    between atoms: N1_1  and  C4_4 
REMARK    2  A    between atoms: N2_2  and  C6_6 
REMARK    3  A    between atoms: C3_3  and  C4_4 
REMARK    4  A    between atoms: C5_5  and  C6_6 
ROOT
HETATM    1  N1  UNK     0      -3.726   3.658   8.627  1.00  0.00    -0.268 NA
HETATM    2  C6  UNK     0      -4.106   2.795   9.614  1.00  0.00     0.126 C 
ENDROOT
BRANCH   1   3
HETATM    3  C4  UNK     0      -4.295   3.629   7.197  1.00  0.00     0.189 C 
BRANCH   3   4
HETATM    4  C3  UNK     0      -5.342   4.806   7.051  1.00  0.00    -0.038 A 
HETATM    5  C8  UNK     0      -4.896   6.181   7.145  1.00  0.00     0.009 A 
HETATM    6  C12 UNK     0      -5.847   7.266   7.010  1.00  0.00     0.001 A 
HETATM    7  C13 UNK     0      -7.248   6.975   6.781  1.00  0.00     0.000 A 
HETATM    8  C11 UNK     0      -7.695   5.599   6.688  1.00  0.00     0.001 A 
HETATM    9  C7  UNK     0      -6.742   4.515   6.821  1.00  0.00     0.009 A 
ENDBRANCH   3   4
ENDBRANCH   1   3
BRANCH   2  10
HETATM   10  N2  UNK     0      -3.497   2.928  10.914  1.00  0.00    -0.384 N 
HETATM   11  H18 UNK     0      -3.550   2.119  11.613  1.00  0.00     0.157 HD
HETATM   12  H17 UNK     0      -2.993   3.833  11.180  1.00  0.00     0.157 HD
ENDBRANCH   2  10
BRANCH   2  13
HETATM   13  C5  UNK     0      -5.165   1.685   9.406  1.00  0.00     0.009 A 
HETATM   14  C9  UNK     0      -4.722   0.334   9.122  1.00  0.00     0.015 A 
HETATM   15  C14 UNK     0      -5.693  -0.722   8.916  1.00  0.00     0.001 A 
HETATM   16  C16 UNK     0      -7.111  -0.429   8.993  1.00  0.00     0.000 A 
HETATM   17  C15 UNK     0      -7.556   0.921   9.275  1.00  0.00     0.001 A 
HETATM   18  C10 UNK     0      -6.583   1.977   9.479  1.00  0.00     0.015 A 
ENDBRANCH   2  13
TORSDOF 4
ENDMDL
MODEL 9
REMARK VINA RESULT:    -5.439      0.896      5.257
REMARK INTER + INTRA:          -7.265
REMARK INTER:                  -6.541
REMARK INTRA:                  -0.724
REMARK UNBOUND:                -0.714
REMARK  4 active torsions:
REMARK  status: ('A' for Active; 'I' for Inactive)
REMARK    1  A    between atoms: N1_1  and  C4_4 
REMARK    2  A    between atoms: N2_2  and  C6_6 
REMARK    3  A    between atoms: C3_3  and  C4_4 
REMARK    4  A    between atoms: C5_5  and  C6_6 
ROOT
HETATM    1  N1  UNK     0      -5.069 -11.697  -2.624  1.00  0.00    -0.268 NA
HETATM    2  C6  UNK     0      -4.454 -12.682  -1.906  1.00  0.00     0.126 C 
ENDROOT
BRANCH   1   3
HETATM    3  C4  UNK     0      -4.513 -10.269  -2.773  1.00  0.00     0.189 C 
BRANCH   3   4
HETATM    4  C3  UNK     0      -5.188  -9.352  -1.675  1.00  0.00    -0.038 A 
HETATM    5  C8  UNK     0      -4.374  -8.751  -0.639  1.00  0.00     0.009 A 
HETATM    6  C12 UNK     0      -4.982  -7.908   0.370  1.00  0.00     0.001 A 
HETATM    7  C13 UNK     0      -6.410  -7.664   0.342  1.00  0.00     0.000 A 
HETATM    8  C11 UNK     0      -7.227  -8.266  -0.693  1.00  0.00     0.001 A 
HETATM    9  C7  UNK     0      -6.616  -9.108  -1.703  1.00  0.00     0.009 A 
ENDBRANCH   3   4
ENDBRANCH   1   3
BRANCH   2  10
HETATM   10  N2  UNK     0      -5.078 -13.979  -1.846  1.00  0.00    -0.384 N 
HETATM   11  H18 UNK     0      -6.145 -14.058  -1.808  1.00  0.00     0.157 HD
HETATM   12  H17 UNK     0      -4.476 -14.863  -1.839  1.00  0.00     0.157 HD
ENDBRANCH   2  10
BRANCH   2  13
HETATM   13  C5  UNK     0      -3.115 -12.473  -1.158  1.00  0.00     0.009 A 
HETATM   14  C9  UNK     0      -3.140 -12.149   0.254  1.00  0.00     0.015 A 
HETATM   15  C14 UNK     0      -1.900 -11.940   0.975  1.00  0.00     0.001 A 
HETATM   16  C16 UNK     0      -0.631 -12.056   0.285  1.00  0.00     0.000 A 
HETATM   17  C15 UNK     0      -0.603 -12.379  -1.128  1.00  0.00     0.001 A 
HETATM   18  C10 UNK     0      -1.844 -12.585  -1.848  1.00  0.00     0.015 A 
ENDBRANCH   2  13
TORSDOF 4
ENDMDL
